<routes>
<vType id="car" vClass="passenger" accel="2.6" decel="4.5" sigma="0.5" length="5.0" maxSpeed="13.9"/>
<vType id="motorcycle" vClass="motorcycle" accel="3.0" decel="5.0" sigma="0.5" length="2.0" maxSpeed="14.0"/>
<vType id="truck" vClass="truck" accel="1.2" decel="3.5" sigma="0.5" length="12.0" maxSpeed="10.0"/>

  <flow id="car_222682222#1_193253427#0_0000002a" type="car" begin="0" end="3600" vehsPerHour="46.66" departLane="best" departPos="random" departSpeed="desired" from="222682222#1" to="193253427#0"/>
  <flow id="car_222682222#1_198876043#0_0000002a" type="car" begin="0" end="3600" vehsPerHour="38.88" departLane="best" departPos="random" departSpeed="desired" from="222682222#1" to="198876043#0"/>
  <flow id="car_222682222#1_28231434_0000002a" type="car" begin="0" end="3600" vehsPerHour="38.88" departLane="best" departPos="random" departSpeed="desired" from="222682222#1" to="28231434"/>
  <flow id="car_222682222#1_23241821#0_0000002a" type="car" begin="0" end="3600" vehsPerHour="31.10" departLane="best" departPos="random" departSpeed="desired" from="222682222#1" to="23241821#0"/>
  <flow id="car_222682222#1_198876042#0_0000002a" type="car" begin="0" end="3600" vehsPerHour="25.92" departLane="best" departPos="random" departSpeed="desired" from="222682222#1" to="198876042#0"/>
  <flow id="motorcycle_222682222#1_193253427#0_0000002a" type="motorcycle" begin="0" end="3600" vehsPerHour="134.78" departLane="best" departPos="random" departSpeed="desired" from="222682222#1" to="193253427#0"/>
  <flow id="motorcycle_222682222#1_198876043#0_0000002a" type="motorcycle" begin="0" end="3600" vehsPerHour="119.23" departLane="best" departPos="random" departSpeed="desired" from="222682222#1" to="198876043#0"/>
  <flow id="motorcycle_222682222#1_28231434_0000002a" type="motorcycle" begin="0" end="3600" vehsPerHour="108.86" departLane="best" departPos="random" departSpeed="desired" from="222682222#1" to="28231434"/>
  <flow id="motorcycle_222682222#1_23241821#0_0000002a" type="motorcycle" begin="0" end="3600" vehsPerHour="88.13" departLane="best" departPos="random" departSpeed="desired" from="222682222#1" to="23241821#0"/>
  <flow id="motorcycle_222682222#1_198876042#0_0000002a" type="motorcycle" begin="0" end="3600" vehsPerHour="77.76" departLane="best" departPos="random" departSpeed="desired" from="222682222#1" to="198876042#0"/>
  <flow id="car_193253433#2_198876043#0_0000002a" type="car" begin="0" end="3600" vehsPerHour="31.10" departLane="best" departPos="random" departSpeed="desired" from="193253433#2" to="198876043#0"/>
  <flow id="car_193253433#2_28231434_0000002a" type="car" begin="0" end="3600" vehsPerHour="25.92" departLane="best" departPos="random" departSpeed="desired" from="193253433#2" to="28231434"/>
  <flow id="car_193253433#2_23241821#0_0000002a" type="car" begin="0" end="3600" vehsPerHour="25.92" departLane="best" departPos="random" departSpeed="desired" from="193253433#2" to="23241821#0"/>
  <flow id="car_193253433#2_198876042#0_0000002a" type="car" begin="0" end="3600" vehsPerHour="20.74" departLane="best" departPos="random" departSpeed="desired" from="193253433#2" to="198876042#0"/>
  <flow id="car_193253433#2_193253427#0_0000002a" type="car" begin="0" end="3600" vehsPerHour="18.14" departLane="best" departPos="random" departSpeed="desired" from="193253433#2" to="193253427#0"/>
  <flow id="motorcycle_193253433#2_198876043#0_0000002a" type="motorcycle" begin="0" end="3600" vehsPerHour="88.13" departLane="best" departPos="random" departSpeed="desired" from="193253433#2" to="198876043#0"/>
  <flow id="motorcycle_193253433#2_28231434_0000002a" type="motorcycle" begin="0" end="3600" vehsPerHour="77.76" departLane="best" departPos="random" departSpeed="desired" from="193253433#2" to="28231434"/>
  <flow id="motorcycle_193253433#2_23241821#0_0000002a" type="motorcycle" begin="0" end="3600" vehsPerHour="72.58" departLane="best" departPos="random" departSpeed="desired" from="193253433#2" to="23241821#0"/>
  <flow id="motorcycle_193253433#2_198876042#0_0000002a" type="motorcycle" begin="0" end="3600" vehsPerHour="62.21" departLane="best" departPos="random" departSpeed="desired" from="193253433#2" to="198876042#0"/>
  <flow id="motorcycle_193253433#2_193253427#0_0000002a" type="motorcycle" begin="0" end="3600" vehsPerHour="51.84" departLane="best" departPos="random" departSpeed="desired" from="193253433#2" to="193253427#0"/>
  <flow id="car_198876045#1_28231434_0000002a" type="car" begin="0" end="3600" vehsPerHour="25.92" departLane="best" departPos="random" departSpeed="desired" from="198876045#1" to="28231434"/>
  <flow id="car_198876045#1_23241821#0_0000002a" type="car" begin="0" end="3600" vehsPerHour="23.33" departLane="best" departPos="random" departSpeed="desired" from="198876045#1" to="23241821#0"/>
  <flow id="car_198876045#1_198876042#0_0000002a" type="car" begin="0" end="3600" vehsPerHour="20.74" departLane="best" departPos="random" departSpeed="desired" from="198876045#1" to="198876042#0"/>
  <flow id="car_198876045#1_193253427#0_0000002a" type="car" begin="0" end="3600" vehsPerHour="18.14" departLane="best" departPos="random" departSpeed="desired" from="198876045#1" to="193253427#0"/>
  <flow id="car_198876045#1_198876043#2_0000002a" type="car" begin="0" end="3600" vehsPerHour="15.55" departLane="best" departPos="random" departSpeed="desired" from="198876045#1" to="198876043#2"/>
  <flow id="motorcycle_198876045#1_28231434_0000002a" type="motorcycle" begin="0" end="3600" vehsPerHour="77.76" departLane="best" departPos="random" departSpeed="desired" from="198876045#1" to="28231434"/>
  <flow id="motorcycle_198876045#1_23241821#0_0000002a" type="motorcycle" begin="0" end="3600" vehsPerHour="67.39" departLane="best" departPos="random" departSpeed="desired" from="198876045#1" to="23241821#0"/>
  <flow id="motorcycle_198876045#1_198876042#0_0000002a" type="motorcycle" begin="0" end="3600" vehsPerHour="62.21" departLane="best" departPos="random" departSpeed="desired" from="198876045#1" to="198876042#0"/>
  <flow id="motorcycle_198876045#1_193253427#0_0000002a" type="motorcycle" begin="0" end="3600" vehsPerHour="57.02" departLane="best" departPos="random" departSpeed="desired" from="198876045#1" to="193253427#0"/>
  <flow id="motorcycle_198876045#1_198876043#2_0000002a" type="motorcycle" begin="0" end="3600" vehsPerHour="51.84" departLane="best" departPos="random" departSpeed="desired" from="198876045#1" to="198876043#2"/>
  <flow id="car_-28231434_23241821#0_0000002a" type="car" begin="0" end="3600" vehsPerHour="18.14" departLane="best" departPos="random" departSpeed="desired" from="-28231434" to="23241821#0"/>
  <flow id="car_-28231434_198876042#0_0000002a" type="car" begin="0" end="3600" vehsPerHour="15.55" departLane="best" departPos="random" departSpeed="desired" from="-28231434" to="198876042#0"/>
  <flow id="car_-28231434_193253427#0_0000002a" type="car" begin="0" end="3600" vehsPerHour="12.96" departLane="best" departPos="random" departSpeed="desired" from="-28231434" to="193253427#0"/>
  <flow id="car_-28231434_198876043#2_0000002a" type="car" begin="0" end="3600" vehsPerHour="12.96" departLane="best" departPos="random" departSpeed="desired" from="-28231434" to="198876043#2"/>
  <flow id="car_-28231434_28231434_0000002a" type="car" begin="0" end="3600" vehsPerHour="10.37" departLane="best" departPos="random" departSpeed="desired" from="-28231434" to="28231434"/>
  <flow id="motorcycle_-28231434_23241821#0_0000002a" type="motorcycle" begin="0" end="3600" vehsPerHour="51.84" departLane="best" departPos="random" departSpeed="desired" from="-28231434" to="23241821#0"/>
  <flow id="motorcycle_-28231434_198876042#0_0000002a" type="motorcycle" begin="0" end="3600" vehsPerHour="46.66" departLane="best" departPos="random" departSpeed="desired" from="-28231434" to="198876042#0"/>
  <flow id="motorcycle_-28231434_193253427#0_0000002a" type="motorcycle" begin="0" end="3600" vehsPerHour="41.47" departLane="best" departPos="random" departSpeed="desired" from="-28231434" to="193253427#0"/>
  <flow id="motorcycle_-28231434_198876043#2_0000002a" type="motorcycle" begin="0" end="3600" vehsPerHour="36.29" departLane="best" departPos="random" departSpeed="desired" from="-28231434" to="198876043#2"/>
  <flow id="motorcycle_-28231434_28231434_0000002a" type="motorcycle" begin="0" end="3600" vehsPerHour="31.10" departLane="best" departPos="random" departSpeed="desired" from="-28231434" to="28231434"/>
  <flow id="car_-55029244#0_198876042#0_0000002a" type="car" begin="0" end="3600" vehsPerHour="20.74" departLane="best" departPos="random" departSpeed="desired" from="-55029244#0" to="198876042#0"/>
  <flow id="car_-55029244#0_193253427#0_0000002a" type="car" begin="0" end="3600" vehsPerHour="18.14" departLane="best" departPos="random" departSpeed="desired" from="-55029244#0" to="193253427#0"/>
  <flow id="car_-55029244#0_198876043#2_0000002a" type="car" begin="0" end="3600" vehsPerHour="15.55" departLane="best" departPos="random" departSpeed="desired" from="-55029244#0" to="198876043#2"/>
  <flow id="car_-55029244#0_28231434_0000002a" type="car" begin="0" end="3600" vehsPerHour="12.96" departLane="best" departPos="random" departSpeed="desired" from="-55029244#0" to="28231434"/>
  <flow id="car_-55029244#0_23241821#0_0000002a" type="car" begin="0" end="3600" vehsPerHour="10.37" departLane="best" departPos="random" departSpeed="desired" from="-55029244#0" to="23241821#0"/>
  <flow id="motorcycle_-55029244#0_198876042#0_0000002a" type="motorcycle" begin="0" end="3600" vehsPerHour="62.21" departLane="best" departPos="random" departSpeed="desired" from="-55029244#0" to="198876042#0"/>
  <flow id="motorcycle_-55029244#0_193253427#0_0000002a" type="motorcycle" begin="0" end="3600" vehsPerHour="51.84" departLane="best" departPos="random" departSpeed="desired" from="-55029244#0" to="193253427#0"/>
  <flow id="motorcycle_-55029244#0_198876043#2_0000002a" type="motorcycle" begin="0" end="3600" vehsPerHour="46.66" departLane="best" departPos="random" departSpeed="desired" from="-55029244#0" to="198876043#2"/>
  <flow id="motorcycle_-55029244#0_28231434_0000002a" type="motorcycle" begin="0" end="3600" vehsPerHour="41.47" departLane="best" departPos="random" departSpeed="desired" from="-55029244#0" to="28231434"/>
  <flow id="motorcycle_-55029244#0_23241821#0_0000002a" type="motorcycle" begin="0" end="3600" vehsPerHour="36.29" departLane="best" departPos="random" departSpeed="desired" from="-55029244#0" to="23241821#0"/>
  <flow id="car_34241530#0_198876042#0_0000002a" type="car" begin="0" end="3600" vehsPerHour="20.74" departLane="best" departPos="random" departSpeed="desired" from="34241530#0" to="198876042#0"/>
  <flow id="car_34241530#0_193253427#0_0000002a" type="car" begin="0" end="3600" vehsPerHour="18.14" departLane="best" departPos="random" departSpeed="desired" from="34241530#0" to="193253427#0"/>
  <flow id="car_34241530#0_198876043#2_0000002a" type="car" begin="0" end="3600" vehsPerHour="15.55" departLane="best" departPos="random" departSpeed="desired" from="34241530#0" to="198876043#2"/>
  <flow id="car_34241530#0_28231434_0000002a" type="car" begin="0" end="3600" vehsPerHour="12.96" departLane="best" departPos="random" departSpeed="desired" from="34241530#0" to="28231434"/>
  <flow id="car_34241530#0_23241821#0_0000002a" type="car" begin="0" end="3600" vehsPerHour="10.37" departLane="best" departPos="random" departSpeed="desired" from="34241530#0" to="23241821#0"/>
  <flow id="motorcycle_34241530#0_198876042#0_0000002a" type="motorcycle" begin="0" end="3600" vehsPerHour="62.21" departLane="best" departPos="random" departSpeed="desired" from="34241530#0" to="198876042#0"/>
  <flow id="motorcycle_34241530#0_193253427#0_0000002a" type="motorcycle" begin="0" end="3600" vehsPerHour="51.84" departLane="best" departPos="random" departSpeed="desired" from="34241530#0" to="193253427#0"/>
  <flow id="motorcycle_34241530#0_198876043#2_0000002a" type="motorcycle" begin="0" end="3600" vehsPerHour="46.66" departLane="best" departPos="random" departSpeed="desired" from="34241530#0" to="198876043#2"/>
  <flow id="motorcycle_34241530#0_28231434_0000002a" type="motorcycle" begin="0" end="3600" vehsPerHour="41.47" departLane="best" departPos="random" departSpeed="desired" from="34241530#0" to="28231434"/>
  <flow id="motorcycle_34241530#0_23241821#0_0000002a" type="motorcycle" begin="0" end="3600" vehsPerHour="36.29" departLane="best" departPos="random" departSpeed="desired" from="34241530#0" to="23241821#0"/>
  <flow id="truck_34241530#0_198876042#0_0000002a" type="truck" begin="0" end="3600" vehsPerHour="9.07" departLane="best" departPos="random" departSpeed="desired" from="34241530#0" to="198876042#0"/>
</routes>
