<?xml version="1.0" encoding="UTF-8"?>
<routes xmlns:xsi="http://www.w3.org/2001/XMLSchema-instance" xsi:noNamespaceSchemaLocation="http://sumo.dlr.de/xsd/routes_file.xsd">
    <vType id="motorcycle" vClass="motorcycle" accel="2.0" decel="6.0" sigma="0.5"
       length="2.0" maxSpeed="13.9" guiShape="motorcycle"/>

    <vType id="passenger" vClass="passenger" accel="2.6" decel="4.5" sigma="0.5"
       length="5.0" maxSpeed="13.9" guiShape="passenger"/>
    
    <vehicle id="mc0" type="motorcycle" depart="0.00">
        <route edges="193253433#2 1276692364 198876043#0 198876043#2"/>
    </vehicle>
    <vehicle id="mc1" type="motorcycle" depart="1.00">
        <route edges="1276692364 1276692365 1276692360 1276692361 1276692362 1276692363 1276692366"/>
    </vehicle>
    <vehicle id="mc2" type="motorcycle" depart="2.00">
        <route edges="1276692363 1276692366 1276692367 1276692368 1276692369 308724899 1276692364"/>
    </vehicle>
    <vehicle id="mc8" type="motorcycle" depart="8.00">
        <route edges="34241530#0 1276692367"/>
    </vehicle>
    <vehicle id="mc9" type="motorcycle" depart="9.00">
        <route edges="308724899 1276692364 1276692365 1276692360 1276692361"/>
    </vehicle>
    <vehicle id="mc11" type="motorcycle" depart="11.00">
        <route edges="193253433#2 1276692364 1276692365 1276692360 1276692361 1276692362 1276692363 1276692366"/>
    </vehicle>
    <vehicle id="mc17" type="motorcycle" depart="17.00">
        <route edges="1276692368 1276692369 308724899 1276692364 1276692365"/>
    </vehicle>
    <vehicle id="mc20" type="motorcycle" depart="20.00">
        <route edges="1276692363 1276692366 1276692367 1276692368 1276692369 308724899 1276692364"/>
    </vehicle>
    <vehicle id="mc21" type="motorcycle" depart="21.00">
        <route edges="1276692368 1276692369 308724899"/>
    </vehicle>
    <vehicle id="mc22" type="motorcycle" depart="22.00">
        <route edges="1276692367 1276692368 1276692369 308724899 1276692364 1276692365 1276692360 1276692361 1276692362 1276692363 23241821#0"/>
    </vehicle>
    <vehicle id="mc23" type="motorcycle" depart="23.00">
        <route edges="193253433#2 1276692364 1276692365 1276692360 1276692361 1276692362 -193253435"/>
    </vehicle>
    <vehicle id="mc24" type="motorcycle" depart="24.00">
        <route edges="1276692360 1276692361 1276692362"/>
    </vehicle>
    <vehicle id="mc25" type="motorcycle" depart="25.00">
        <route edges="34241530#0 1276692367"/>
    </vehicle>
    <vehicle id="mc26" type="motorcycle" depart="26.00">
        <route edges="1276692365 1276692360 1276692361 1276692362 1276692363 1276692366"/>
    </vehicle>
    <vehicle id="mc27" type="motorcycle" depart="27.00">
        <route edges="-55029244#0 1276692363 1276692366 1276692367 1276692368 1276692369 308724899 1276692364 198876043#0 198876043#2"/>
    </vehicle>
    <vehicle id="mc28" type="motorcycle" depart="28.00">
        <route edges="1276692369 308724899 1276692364 198876043#0"/>
    </vehicle>
    <vehicle id="mc29" type="motorcycle" depart="29.00">
        <route edges="-55029244#0 1276692363 1276692366 1276692367 1276692368 1276692369 308724899 1276692364 1276692365 1276692360 1276692361"/>
    </vehicle>
    <vehicle id="mc31" type="motorcycle" depart="31.00">
        <route edges="-55029244#0 1276692363 1276692366 1276692367 1276692368 1276692369 308724899"/>
    </vehicle>
    <vehicle id="mc32" type="motorcycle" depart="32.00">
        <route edges="34241530#0 1276692367 1276692368 1276692369 308724899 1276692364 1276692365 1276692360 1276692361 1276692362 1276692363"/>
    </vehicle>
    <vehicle id="mc33" type="motorcycle" depart="33.00">
        <route edges="308724899 1276692364"/>
    </vehicle>
    <vehicle id="mc36" type="motorcycle" depart="36.00">
        <route edges="1276692361 28231434"/>
    </vehicle>
    <vehicle id="mc38" type="motorcycle" depart="38.00">
        <route edges="1276692366 1276692367 1276692368 1276692369 308724899 1276692364 1276692365"/>
    </vehicle>
    <vehicle id="mc41" type="motorcycle" depart="41.00">
        <route edges="1276692364 1276692365 1276692360"/>
    </vehicle>
    <vehicle id="mc42" type="motorcycle" depart="42.00">
        <route edges="198876045#1 1276692360 1276692361"/>
    </vehicle>
    <vehicle id="mc43" type="motorcycle" depart="43.00">
        <route edges="1276692364 1276692365 1276692360 1276692361 1276692362 1276692363 1276692366 1276692367 1276692368"/>
    </vehicle>
    <vehicle id="mc44" type="motorcycle" depart="44.00">
        <route edges="1276692369 308724899 1276692364 1276692365"/>
    </vehicle>
    <vehicle id="mc46" type="motorcycle" depart="46.00">
        <route edges="1276692369 308724899 1276692364 1276692365 1276692360 1276692361 1276692362 1276692363 23241821#0"/>
    </vehicle>
    <vehicle id="mc47" type="motorcycle" depart="47.00">
        <route edges="308724899 1276692364 1276692365 1276692360 1276692361 1276692362 1276692363 1276692366 1276692367 198876042#0"/>
    </vehicle>
    <vehicle id="mc48" type="motorcycle" depart="48.00">
        <route edges="198876045#1 1276692360 1276692361 1276692362 1276692363 1276692366 1276692367 1276692368 1276692369 308724899 1276692364"/>
    </vehicle>
    <vehicle id="mc49" type="motorcycle" depart="49.00">
        <route edges="1276692366 1276692367 1276692368 1276692369 308724899 1276692364 1276692365 1276692360 1276692361"/>
    </vehicle>
    <vehicle id="mc50" type="motorcycle" depart="50.00">
        <route edges="-55029244#0 1276692363 1276692366 1276692367 1276692368 1276692369 193253427#0"/>
    </vehicle>
    <vehicle id="mc51" type="motorcycle" depart="51.00">
        <route edges="1276692365 1276692360 1276692361 1276692362 1276692363 1276692366 1276692367 1276692368 1276692369 308724899"/>
    </vehicle>
    <vehicle id="mc52" type="motorcycle" depart="52.00">
        <route edges="1276692367 1276692368 1276692369 193253427#0"/>
    </vehicle>
    <vehicle id="mc53" type="motorcycle" depart="53.00">
        <route edges="1276692364 1276692365 1276692360 1276692361 1276692362 1276692363 1276692366 1276692367 1276692368"/>
    </vehicle>
    <vehicle id="mc54" type="motorcycle" depart="54.00">
        <route edges="-55029244#0 1276692363 1276692366 1276692367"/>
    </vehicle>
    <vehicle id="mc55" type="motorcycle" depart="55.00">
        <route edges="222682222#1 1276692369 308724899 1276692364 1276692365 1276692360 1276692361"/>
    </vehicle>
    <vehicle id="mc57" type="motorcycle" depart="57.00">
        <route edges="1276692365 1276692360 1276692361 28231434"/>
    </vehicle>
    <vehicle id="mc58" type="motorcycle" depart="58.00">
        <route edges="-55029244#0 1276692363 1276692366 1276692367 1276692368 1276692369 193253427#0"/>
    </vehicle>
    <vehicle id="mc59" type="motorcycle" depart="59.00">
        <route edges="1276692363 1276692366 1276692367 198876042#0"/>
    </vehicle>
    <vehicle id="mc60" type="motorcycle" depart="60.00">
        <route edges="1276692363 1276692366 1276692367 1276692368 1276692369 308724899"/>
    </vehicle>
    <vehicle id="mc61" type="motorcycle" depart="61.00">
        <route edges="308724899 1276692364 198876043#0 198876043#2 198876043#3"/>
    </vehicle>
    <vehicle id="mc62" type="motorcycle" depart="62.00">
        <route edges="308724899 1276692364 198876043#0 198876043#2 198876043#3"/>
    </vehicle>
    <vehicle id="mc63" type="motorcycle" depart="63.00">
        <route edges="1276692368 1276692369 308724899 1276692364 198876043#0"/>
    </vehicle>
    <vehicle id="mc64" type="motorcycle" depart="64.00">
        <route edges="1276692362 -193253435"/>
    </vehicle>
    <vehicle id="mc66" type="motorcycle" depart="66.00">
        <route edges="1276692367 1276692368 1276692369 308724899 1276692364 1276692365 1276692360 1276692361 1276692362 1276692363"/>
    </vehicle>
    <vehicle id="mc68" type="motorcycle" depart="68.00">
        <route edges="198876045#1 1276692360 1276692361 1276692362 1276692363 1276692366 1276692367 1276692368 1276692369 308724899 1276692364 198876043#0"/>
    </vehicle>
    <vehicle id="mc69" type="motorcycle" depart="69.00">
        <route edges="1276692361 1276692362 -193253435"/>
    </vehicle>
    <vehicle id="mc70" type="motorcycle" depart="70.00">
        <route edges="308724899 1276692364 1276692365 1276692360 1276692361 28231434"/>
    </vehicle>
    <vehicle id="mc71" type="motorcycle" depart="71.00">
        <route edges="1276692366 1276692367 1276692368 1276692369 308724899 1276692364 1276692365"/>
    </vehicle>
    <vehicle id="mc72" type="motorcycle" depart="72.00">
        <route edges="1276692366 1276692367 1276692368 1276692369 308724899 1276692364 1276692365 1276692360 1276692361 1276692362"/>
    </vehicle>
    <vehicle id="mc77" type="motorcycle" depart="77.00">
        <route edges="1276692363 1276692366 1276692367 1276692368 1276692369 308724899 1276692364 1276692365"/>
    </vehicle>
    <vehicle id="mc79" type="motorcycle" depart="79.00">
        <route edges="193253433#2 1276692364 1276692365 1276692360 1276692361 1276692362 1276692363 1276692366 1276692367"/>
    </vehicle>
    <vehicle id="mc81" type="motorcycle" depart="81.00">
        <route edges="1276692369 308724899 1276692364 1276692365 1276692360 1276692361 1276692362"/>
    </vehicle>
    <vehicle id="mc83" type="motorcycle" depart="83.00">
        <route edges="198876043#0 198876043#2 198876043#3"/>
    </vehicle>
    <vehicle id="mc85" type="motorcycle" depart="85.00">
        <route edges="1276692361 1276692362 1276692363 1276692366"/>
    </vehicle>
    <vehicle id="mc86" type="motorcycle" depart="86.00">
        <route edges="308724899 1276692364 1276692365 1276692360"/>
    </vehicle>
    <vehicle id="mc90" type="motorcycle" depart="90.00">
        <route edges="222682222#1 1276692369 308724899 1276692364 1276692365 1276692360"/>
    </vehicle>
    <vehicle id="mc91" type="motorcycle" depart="91.00">
        <route edges="-55029244#0 1276692363 1276692366 1276692367 1276692368 1276692369 308724899 1276692364 1276692365 1276692360"/>
    </vehicle>
    <vehicle id="mc92" type="motorcycle" depart="92.00">
        <route edges="1276692368 1276692369 308724899 1276692364 1276692365 1276692360 1276692361"/>
    </vehicle>
    <vehicle id="mc94" type="motorcycle" depart="94.00">
        <route edges="1276692367 1276692368 1276692369 193253427#0"/>
    </vehicle>
    <vehicle id="mc97" type="motorcycle" depart="97.00">
        <route edges="1276692362 1276692363 1276692366 1276692367 1276692368 1276692369"/>
    </vehicle>
    <vehicle id="mc98" type="motorcycle" depart="98.00">
        <route edges="1276692360 1276692361 1276692362 1276692363 1276692366 1276692367 1276692368 1276692369 308724899"/>
    </vehicle>
    <vehicle id="mc100" type="motorcycle" depart="100.00">
        <route edges="1276692362 1276692363 1276692366 1276692367 1276692368 1276692369 308724899"/>
    </vehicle>
    <vehicle id="mc101" type="motorcycle" depart="101.00">
        <route edges="1276692362 1276692363 1276692366 1276692367 1276692368 1276692369 308724899"/>
    </vehicle>
    <vehicle id="mc102" type="motorcycle" depart="102.00">
        <route edges="1276692360 1276692361 1276692362 1276692363 1276692366 1276692367"/>
    </vehicle>
    <vehicle id="mc104" type="motorcycle" depart="104.00">
        <route edges="1276692360 1276692361 1276692362 1276692363 1276692366 1276692367 1276692368 1276692369 308724899 1276692364 198876043#0 198876043#2 198876043#3"/>
    </vehicle>
    <vehicle id="mc106" type="motorcycle" depart="106.00">
        <route edges="34241530#0 1276692367 1276692368 1276692369 308724899 1276692364 1276692365 1276692360 1276692361 1276692362 -193253435"/>
    </vehicle>
    <vehicle id="mc108" type="motorcycle" depart="108.00">
        <route edges="1276692366 1276692367 1276692368 1276692369 308724899 1276692364 198876043#0 198876043#2"/>
    </vehicle>
    <vehicle id="mc109" type="motorcycle" depart="109.00">
        <route edges="1276692366 1276692367 1276692368 1276692369 308724899 1276692364 1276692365 1276692360"/>
    </vehicle>
    <vehicle id="mc110" type="motorcycle" depart="110.00">
        <route edges="34241530#0 1276692367 1276692368 1276692369 308724899 1276692364 198876043#0 198876043#2 198876043#3"/>
    </vehicle>
    <vehicle id="mc111" type="motorcycle" depart="111.00">
        <route edges="193253433#2 1276692364 1276692365 1276692360 1276692361 1276692362 1276692363 1276692366 1276692367 198876042#0"/>
    </vehicle>
    <vehicle id="mc113" type="motorcycle" depart="113.00">
        <route edges="1276692360 1276692361 1276692362 1276692363 1276692366 1276692367 1276692368 1276692369 308724899 1276692364 198876043#0 198876043#2"/>
    </vehicle>
    <vehicle id="mc114" type="motorcycle" depart="114.00">
        <route edges="1276692367 1276692368 1276692369 308724899 1276692364 1276692365 1276692360"/>
    </vehicle>
    <vehicle id="mc115" type="motorcycle" depart="115.00">
        <route edges="1276692365 1276692360 1276692361 1276692362 1276692363 1276692366 1276692367 1276692368 1276692369"/>
    </vehicle>
    <vehicle id="mc116" type="motorcycle" depart="116.00">
        <route edges="-55029244#0 1276692363 1276692366 1276692367 1276692368 1276692369 308724899 1276692364 1276692365 1276692360"/>
    </vehicle>
    <vehicle id="mc117" type="motorcycle" depart="117.00">
        <route edges="1276692363 1276692366 1276692367 1276692368 1276692369 308724899 1276692364"/>
    </vehicle>
    <vehicle id="mc118" type="motorcycle" depart="118.00">
        <route edges="1276692364 1276692365 1276692360 1276692361 1276692362 1276692363 1276692366 1276692367 198876042#0"/>
    </vehicle>
    <vehicle id="mc122" type="motorcycle" depart="122.00">
        <route edges="-55029244#0 1276692363 1276692366 1276692367 1276692368 1276692369 308724899 1276692364 1276692365 1276692360 1276692361"/>
    </vehicle>
    <vehicle id="mc125" type="motorcycle" depart="125.00">
        <route edges="1276692361 1276692362 1276692363 1276692366 1276692367 1276692368 1276692369 308724899 1276692364 198876043#0 198876043#2"/>
    </vehicle>
    <vehicle id="mc130" type="motorcycle" depart="130.00">
        <route edges="1276692368 1276692369 308724899 1276692364 1276692365 1276692360 1276692361 1276692362 -193253435"/>
    </vehicle>
    <vehicle id="mc132" type="motorcycle" depart="132.00">
        <route edges="222682222#1 1276692369 308724899 1276692364 1276692365 1276692360 1276692361 1276692362 1276692363 23241821#0"/>
    </vehicle>
    <vehicle id="mc135" type="motorcycle" depart="135.00">
        <route edges="198876045#1 1276692360 1276692361 1276692362 1276692363 1276692366 1276692367 1276692368 1276692369 308724899 1276692364 198876043#0 198876043#2"/>
    </vehicle>
    <vehicle id="mc140" type="motorcycle" depart="140.00">
        <route edges="1276692362 -193253435"/>
    </vehicle>
    <vehicle id="mc141" type="motorcycle" depart="141.00">
        <route edges="1276692365 1276692360 1276692361 1276692362 1276692363 1276692366 1276692367"/>
    </vehicle>
    <vehicle id="mc143" type="motorcycle" depart="143.00">
        <route edges="1276692364 1276692365"/>
    </vehicle>
    <vehicle id="mc144" type="motorcycle" depart="144.00">
        <route edges="-55029244#0 1276692363 23241821#0"/>
    </vehicle>
    <vehicle id="mc146" type="motorcycle" depart="146.00">
        <route edges="-55029244#0 1276692363 1276692366 1276692367 1276692368 1276692369 308724899 1276692364"/>
    </vehicle>
    <vehicle id="mc148" type="motorcycle" depart="148.00">
        <route edges="193253433#2 1276692364 1276692365 1276692360 1276692361 1276692362 1276692363 23241821#0"/>
    </vehicle>
    <vehicle id="mc149" type="motorcycle" depart="149.00">
        <route edges="1276692360 1276692361 1276692362 -193253435"/>
    </vehicle>
    <vehicle id="mc152" type="motorcycle" depart="152.00">
        <route edges="1276692360 1276692361 1276692362 1276692363 1276692366 1276692367 1276692368 1276692369 308724899"/>
    </vehicle>
    <vehicle id="mc153" type="motorcycle" depart="153.00">
        <route edges="1276692361 1276692362 1276692363 1276692366 1276692367 198876042#0"/>
    </vehicle>
    <vehicle id="mc154" type="motorcycle" depart="154.00">
        <route edges="1276692369 308724899 1276692364 198876043#0 198876043#2 198876043#3"/>
    </vehicle>
    <vehicle id="mc155" type="motorcycle" depart="155.00">
        <route edges="-55029244#0 1276692363 1276692366 1276692367 1276692368 1276692369 308724899 1276692364 198876043#0 198876043#2"/>
    </vehicle>
    <vehicle id="mc157" type="motorcycle" depart="157.00">
        <route edges="1276692363 1276692366 1276692367 198876042#0"/>
    </vehicle>
    <vehicle id="mc158" type="motorcycle" depart="158.00">
        <route edges="308724899 1276692364 1276692365 1276692360 1276692361 1276692362 1276692363 1276692366 1276692367 1276692368"/>
    </vehicle>
    <vehicle id="mc159" type="motorcycle" depart="159.00">
        <route edges="1276692366 1276692367"/>
    </vehicle>
    <vehicle id="mc161" type="motorcycle" depart="161.00">
        <route edges="-55029244#0 1276692363 1276692366 1276692367 1276692368 1276692369 308724899 1276692364 1276692365"/>
    </vehicle>
    <vehicle id="mc162" type="motorcycle" depart="162.00">
        <route edges="1276692366 1276692367 1276692368 1276692369 308724899 1276692364 1276692365 1276692360 1276692361"/>
    </vehicle>
    <vehicle id="mc163" type="motorcycle" depart="163.00">
        <route edges="1276692364 1276692365 1276692360 1276692361 1276692362 1276692363 1276692366 1276692367 1276692368"/>
    </vehicle>
    <vehicle id="mc165" type="motorcycle" depart="165.00">
        <route edges="1276692368 1276692369 193253427#0"/>
    </vehicle>
    <vehicle id="mc166" type="motorcycle" depart="166.00">
        <route edges="198876045#1 1276692360 1276692361 1276692362 1276692363 1276692366 1276692367 1276692368 1276692369"/>
    </vehicle>
    <vehicle id="mc167" type="motorcycle" depart="167.00">
        <route edges="-55029244#0 1276692363 1276692366 1276692367"/>
    </vehicle>
    <vehicle id="mc168" type="motorcycle" depart="168.00">
        <route edges="1276692362 1276692363 1276692366 1276692367 1276692368 1276692369"/>
    </vehicle>
    <vehicle id="mc169" type="motorcycle" depart="169.00">
        <route edges="-55029244#0 1276692363 1276692366 1276692367 1276692368 1276692369 308724899 1276692364"/>
    </vehicle>
    <vehicle id="mc170" type="motorcycle" depart="170.00">
        <route edges="-28231434 1276692362 1276692363 23241821#0"/>
    </vehicle>
    <vehicle id="mc172" type="motorcycle" depart="172.00">
        <route edges="1276692367 1276692368 1276692369 308724899 1276692364 198876043#0 198876043#2 198876043#3"/>
    </vehicle>
    <vehicle id="mc173" type="motorcycle" depart="173.00">
        <route edges="1276692360 1276692361 1276692362 1276692363"/>
    </vehicle>
    <vehicle id="mc175" type="motorcycle" depart="175.00">
        <route edges="193253433#2 1276692364 1276692365 1276692360 1276692361 1276692362 -193253435"/>
    </vehicle>
    <vehicle id="mc177" type="motorcycle" depart="177.00">
        <route edges="1276692362 1276692363 1276692366 1276692367 1276692368"/>
    </vehicle>
    <vehicle id="mc178" type="motorcycle" depart="178.00">
        <route edges="1276692367 1276692368 1276692369 308724899 1276692364"/>
    </vehicle>
    <vehicle id="mc179" type="motorcycle" depart="179.00">
        <route edges="-55029244#0 1276692363 1276692366 1276692367 1276692368 1276692369 308724899 1276692364 1276692365 1276692360 1276692361 28231434"/>
    </vehicle>
    <vehicle id="mc182" type="motorcycle" depart="182.00">
        <route edges="308724899 1276692364 1276692365 1276692360 1276692361 1276692362 1276692363 1276692366 1276692367 1276692368 1276692369"/>
    </vehicle>
    <vehicle id="mc183" type="motorcycle" depart="183.00">
        <route edges="222682222#1 1276692369 308724899 1276692364 1276692365 1276692360 1276692361"/>
    </vehicle>
    <vehicle id="mc185" type="motorcycle" depart="185.00">
        <route edges="222682222#1 1276692369 308724899 1276692364"/>
    </vehicle>
    <vehicle id="mc186" type="motorcycle" depart="186.00">
        <route edges="-193253435 -55029244#0"/>
    </vehicle>
    <vehicle id="mc189" type="motorcycle" depart="189.00">
        <route edges="1276692369 308724899 1276692364 1276692365 1276692360"/>
    </vehicle>
    <vehicle id="mc190" type="motorcycle" depart="190.00">
        <route edges="-55029244#0 1276692363 23241821#0"/>
    </vehicle>
    <vehicle id="mc191" type="motorcycle" depart="191.00">
        <route edges="193253433#2 1276692364 1276692365 1276692360 1276692361"/>
    </vehicle>
    <vehicle id="mc192" type="motorcycle" depart="192.00">
        <route edges="1276692363 1276692366 1276692367 1276692368 1276692369 308724899 1276692364 198876043#0 198876043#2"/>
    </vehicle>
    <vehicle id="mc194" type="motorcycle" depart="194.00">
        <route edges="222682222#1 1276692369 308724899 1276692364 1276692365 1276692360 1276692361"/>
    </vehicle>
    <vehicle id="mc195" type="motorcycle" depart="195.00">
        <route edges="1276692362 1276692363 1276692366 1276692367 1276692368 1276692369 308724899 1276692364 198876043#0 198876043#2"/>
    </vehicle>
    <vehicle id="mc198" type="motorcycle" depart="198.00">
        <route edges="-55029244#0 1276692363 1276692366 1276692367 1276692368 1276692369 308724899 1276692364"/>
    </vehicle>
    <vehicle id="mc206" type="motorcycle" depart="206.00">
        <route edges="1276692366 1276692367 1276692368 1276692369"/>
    </vehicle>
    <vehicle id="mc207" type="motorcycle" depart="207.00">
        <route edges="1276692364 1276692365 1276692360 1276692361 1276692362"/>
    </vehicle>
    <vehicle id="mc208" type="motorcycle" depart="208.00">
        <route edges="193253433#2 1276692364 1276692365"/>
    </vehicle>
    <vehicle id="mc209" type="motorcycle" depart="209.00">
        <route edges="222682222#1 1276692369 308724899 1276692364 1276692365 1276692360 1276692361 1276692362"/>
    </vehicle>
    <vehicle id="mc211" type="motorcycle" depart="211.00">
        <route edges="1276692369 308724899 1276692364 1276692365"/>
    </vehicle>
    <vehicle id="mc212" type="motorcycle" depart="212.00">
        <route edges="1276692369 308724899 1276692364 1276692365 1276692360 1276692361 1276692362 -193253435"/>
    </vehicle>
    <vehicle id="mc213" type="motorcycle" depart="213.00">
        <route edges="222682222#1 1276692369 308724899 1276692364"/>
    </vehicle>
    <vehicle id="mc214" type="motorcycle" depart="214.00">
        <route edges="1276692365 1276692360 1276692361 1276692362 1276692363 1276692366 1276692367 1276692368 1276692369"/>
    </vehicle>
    <vehicle id="mc215" type="motorcycle" depart="215.00">
        <route edges="1276692366 1276692367"/>
    </vehicle>
    <vehicle id="mc217" type="motorcycle" depart="217.00">
        <route edges="1276692367 1276692368 1276692369 308724899 1276692364 1276692365 1276692360 1276692361"/>
    </vehicle>
    <vehicle id="mc218" type="motorcycle" depart="218.00">
        <route edges="1276692368 1276692369 308724899 1276692364 1276692365 1276692360 1276692361 1276692362 1276692363 1276692366"/>
    </vehicle>
    <vehicle id="mc221" type="motorcycle" depart="221.00">
        <route edges="198876045#1 1276692360 1276692361 1276692362 1276692363 1276692366 1276692367 1276692368 1276692369 193253427#0"/>
    </vehicle>
    <vehicle id="mc223" type="motorcycle" depart="223.00">
        <route edges="193253433#2 1276692364 1276692365 1276692360 1276692361 1276692362 -193253435"/>
    </vehicle>
    <vehicle id="mc225" type="motorcycle" depart="225.00">
        <route edges="34241530#0 1276692367 1276692368 1276692369 308724899 1276692364 198876043#0"/>
    </vehicle>
    <vehicle id="mc226" type="motorcycle" depart="226.00">
        <route edges="1276692361 1276692362 1276692363"/>
    </vehicle>
    <vehicle id="mc228" type="motorcycle" depart="228.00">
        <route edges="222682222#1 1276692369 308724899 1276692364 198876043#0"/>
    </vehicle>
    <vehicle id="mc230" type="motorcycle" depart="230.00">
        <route edges="222682222#1 1276692369 308724899 1276692364 1276692365 1276692360 1276692361 1276692362 1276692363"/>
    </vehicle>
    <vehicle id="mc232" type="motorcycle" depart="232.00">
        <route edges="-55029244#0 1276692363 1276692366"/>
    </vehicle>
    <vehicle id="mc233" type="motorcycle" depart="233.00">
        <route edges="34241530#0 1276692367 1276692368 1276692369"/>
    </vehicle>
    <vehicle id="mc234" type="motorcycle" depart="234.00">
        <route edges="1276692367 1276692368 1276692369 308724899 1276692364 1276692365 1276692360 1276692361 1276692362 -193253435"/>
    </vehicle>
    <vehicle id="mc235" type="motorcycle" depart="235.00">
        <route edges="-55029244#0 1276692363 1276692366 1276692367 1276692368"/>
    </vehicle>
    <vehicle id="mc236" type="motorcycle" depart="236.00">
        <route edges="-55029244#0 1276692363 1276692366 1276692367 1276692368 1276692369 308724899"/>
    </vehicle>
    <vehicle id="mc237" type="motorcycle" depart="237.00">
        <route edges="1276692363 1276692366 1276692367 1276692368 1276692369 308724899 1276692364"/>
    </vehicle>
    <vehicle id="mc238" type="motorcycle" depart="238.00">
        <route edges="1276692362 1276692363 1276692366 1276692367 1276692368 1276692369 308724899 1276692364 1276692365 1276692360 1276692361"/>
    </vehicle>
    <vehicle id="mc239" type="motorcycle" depart="239.00">
        <route edges="-55029244#0 1276692363 23241821#0"/>
    </vehicle>
    <vehicle id="mc241" type="motorcycle" depart="241.00">
        <route edges="1276692369 308724899 1276692364 1276692365 1276692360 1276692361 1276692362 1276692363 1276692366"/>
    </vehicle>
    <vehicle id="mc242" type="motorcycle" depart="242.00">
        <route edges="-28231434 1276692362 1276692363 1276692366 1276692367 1276692368 1276692369 308724899 1276692364 1276692365 1276692360"/>
    </vehicle>
    <vehicle id="mc243" type="motorcycle" depart="243.00">
        <route edges="1276692362 1276692363 1276692366 1276692367 1276692368 1276692369 308724899 1276692364 198876043#0 198876043#2"/>
    </vehicle>
    <vehicle id="mc244" type="motorcycle" depart="244.00">
        <route edges="1276692361 1276692362 1276692363 23241821#0"/>
    </vehicle>
    <vehicle id="mc245" type="motorcycle" depart="245.00">
        <route edges="222682222#1 1276692369 308724899 1276692364 198876043#0 198876043#2"/>
    </vehicle>
    <vehicle id="mc247" type="motorcycle" depart="247.00">
        <route edges="308724899 1276692364 198876043#0 198876043#2 198876043#3"/>
    </vehicle>
    <vehicle id="mc248" type="motorcycle" depart="248.00">
        <route edges="1276692365 1276692360 1276692361 1276692362 1276692363"/>
    </vehicle>
    <vehicle id="mc250" type="motorcycle" depart="250.00">
        <route edges="-55029244#0 1276692363 1276692366 1276692367"/>
    </vehicle>
    <vehicle id="mc251" type="motorcycle" depart="251.00">
        <route edges="-55029244#0 1276692363 1276692366 1276692367 1276692368 1276692369 308724899 1276692364 198876043#0 198876043#2"/>
    </vehicle>
    <vehicle id="mc252" type="motorcycle" depart="252.00">
        <route edges="1276692362 1276692363 1276692366"/>
    </vehicle>
    <vehicle id="mc253" type="motorcycle" depart="253.00">
        <route edges="-55029244#0 1276692363 1276692366 1276692367 1276692368 1276692369 308724899 1276692364 198876043#0 198876043#2"/>
    </vehicle>
    <vehicle id="mc255" type="motorcycle" depart="255.00">
        <route edges="198876045#1 1276692360 1276692361 1276692362"/>
    </vehicle>
    <vehicle id="mc256" type="motorcycle" depart="256.00">
        <route edges="34241530#0 1276692367 1276692368 1276692369"/>
    </vehicle>
    <vehicle id="mc258" type="motorcycle" depart="258.00">
        <route edges="1276692369 308724899 1276692364 1276692365 1276692360 1276692361 1276692362 -193253435"/>
    </vehicle>
    <vehicle id="mc261" type="motorcycle" depart="261.00">
        <route edges="1276692360 1276692361 28231434"/>
    </vehicle>
    <vehicle id="mc262" type="motorcycle" depart="262.00">
        <route edges="1276692364 1276692365"/>
    </vehicle>
    <vehicle id="mc264" type="motorcycle" depart="264.00">
        <route edges="-55029244#0 1276692363 1276692366 1276692367 1276692368 1276692369 308724899"/>
    </vehicle>
    <vehicle id="mc266" type="motorcycle" depart="266.00">
        <route edges="308724899 1276692364 1276692365 1276692360 1276692361 1276692362 1276692363 1276692366 1276692367 1276692368 1276692369"/>
    </vehicle>
    <vehicle id="mc268" type="motorcycle" depart="268.00">
        <route edges="1276692364 1276692365"/>
    </vehicle>
    <vehicle id="mc269" type="motorcycle" depart="269.00">
        <route edges="222682222#1 1276692369 308724899 1276692364 1276692365"/>
    </vehicle>
    <vehicle id="mc270" type="motorcycle" depart="270.00">
        <route edges="198876045#1 1276692360 1276692361 1276692362 1276692363"/>
    </vehicle>
    <vehicle id="mc273" type="motorcycle" depart="273.00">
        <route edges="1276692361 1276692362 1276692363 23241821#0"/>
    </vehicle>
    <vehicle id="mc277" type="motorcycle" depart="277.00">
        <route edges="1276692366 1276692367 1276692368 1276692369 308724899 1276692364 1276692365 1276692360 1276692361 1276692362 -193253435"/>
    </vehicle>
    <vehicle id="mc278" type="motorcycle" depart="278.00">
        <route edges="1276692363 1276692366 1276692367 1276692368 1276692369 308724899 1276692364 1276692365 1276692360 1276692361 1276692362"/>
    </vehicle>
    <vehicle id="mc279" type="motorcycle" depart="279.00">