<?xml version='1.0' encoding='UTF-8'?>
<routes>
  <vType id="motorcycle" vClass="motorcycle" color="1,0,0" length="2.0" maxSpeed="13.9" guiShape="motorcycle"/>
  <vType id="passenger" vClass="passenger" color="0,0,1" length="5.0" maxSpeed="13.9" guiShape="passenger"/>
  <flow id="mc0" type="motorcycle" begin="0" end="3600" from="1276692361" to="1276692365" number="1" departLane="best" departSpeed="max" departPos="random_free"/>
  <flow id="mc1" type="motorcycle" begin="0" end="3600" from="34241530#0" to="198876042#0" number="1" departLane="best" departSpeed="max" departPos="random_free"/>
  <flow id="mc2" type="motorcycle" begin="0" end="3600" from="1276692361" to="1276692365" number="1" departLane="best" departSpeed="max" departPos="random_free"/>
  <flow id="mc3" type="motorcycle" begin="0" end="3600" from="198876045#1" to="198876043#2" number="1" departLane="best" departSpeed="max" departPos="random_free"/>
  <flow id="mc4" type="motorcycle" begin="0" end="3600" from="198876045#1" to="198876043#2" number="1" departLane="best" departSpeed="max" departPos="random_free"/>
  <flow id="mc5" type="motorcycle" begin="0" end="3600" from="1276692363" to="1276692369" number="1" departLane="best" departSpeed="max" departPos="random_free"/>
  <flow id="mc6" type="motorcycle" begin="0" end="3600" from="198876045#1" to="198876043#2" number="1" departLane="best" departSpeed="max" departPos="random_free"/>
  <flow id="mc7" type="motorcycle" begin="0" end="3600" from="-55029244#0" to="28231434" number="1" departLane="best" departSpeed="max" departPos="random_free"/>
  <flow id="mc8" type="motorcycle" begin="0" end="3600" from="1276692361" to="1276692365" number="1" departLane="best" departSpeed="max" departPos="random_free"/>
  <flow id="mc9" type="motorcycle" begin="0" end="3600" from="1276692363" to="1276692369" number="1" departLane="best" departSpeed="max" departPos="random_free"/>
  <flow id="mc10" type="motorcycle" begin="0" end="3600" from="1276692361" to="1276692365" number="1" departLane="best" departSpeed="max" departPos="random_free"/>
  <flow id="mc11" type="motorcycle" begin="0" end="3600" from="34241530#0" to="198876042#0" number="1" departLane="best" departSpeed="max" departPos="random_free"/>
  <flow id="mc12" type="motorcycle" begin="0" end="3600" from="34241530#0" to="198876042#0" number="1" departLane="best" departSpeed="max" departPos="random_free"/>
  <flow id="mc13" type="motorcycle" begin="0" end="3600" from="1276692363" to="1276692369" number="1" departLane="best" departSpeed="max" departPos="random_free"/>
  <flow id="mc14" type="motorcycle" begin="0" end="3600" from="-55029244#0" to="28231434" number="1" departLane="best" departSpeed="max" departPos="random_free"/>
  <flow id="mc15" type="motorcycle" begin="0" end="3600" from="1276692363" to="1276692369" number="1" departLane="best" departSpeed="max" departPos="random_free"/>
  <flow id="mc16" type="motorcycle" begin="0" end="3600" from="1276692360" to="1276692364" number="1" departLane="best" departSpeed="max" departPos="random_free"/>
  <flow id="mc17" type="motorcycle" begin="0" end="3600" from="1276692360" to="1276692364" number="1" departLane="best" departSpeed="max" departPos="random_free"/>
  <flow id="mc18" type="motorcycle" begin="0" end="3600" from="34241530#0" to="198876042#0" number="1" departLane="best" departSpeed="max" departPos="random_free"/>
  <flow id="mc19" type="motorcycle" begin="0" end="3600" from="198876045#1" to="198876043#2" number="1" departLane="best" departSpeed="max" departPos="random_free"/>
  <flow id="mc20" type="motorcycle" begin="0" end="3600" from="198876045#1" to="198876043#2" number="1" departLane="best" departSpeed="max" departPos="random_free"/>
  <flow id="mc21" type="motorcycle" begin="0" end="3600" from="1276692361" to="1276692365" number="1" departLane="best" departSpeed="max" departPos="random_free"/>
  <flow id="mc22" type="motorcycle" begin="0" end="3600" from="1276692363" to="1276692369" number="1" departLane="best" departSpeed="max" departPos="random_free"/>
  <flow id="mc23" type="motorcycle" begin="0" end="3600" from="1276692363" to="1276692369" number="1" departLane="best" departSpeed="max" departPos="random_free"/>
  <flow id="mc24" type="motorcycle" begin="0" end="3600" from="198876045#1" to="198876043#2" number="1" departLane="best" departSpeed="max" departPos="random_free"/>
  <flow id="mc25" type="motorcycle" begin="0" end="3600" from="1276692363" to="1276692369" number="1" departLane="best" departSpeed="max" departPos="random_free"/>
  <flow id="mc26" type="motorcycle" begin="0" end="3600" from="1276692361" to="1276692365" number="1" departLane="best" departSpeed="max" departPos="random_free"/>
  <flow id="mc27" type="motorcycle" begin="0" end="3600" from="198876045#1" to="198876043#2" number="1" departLane="best" departSpeed="max" departPos="random_free"/>
  <flow id="mc28" type="motorcycle" begin="0" end="3600" from="34241530#0" to="198876042#0" number="1" departLane="best" departSpeed="max" departPos="random_free"/>
  <flow id="mc29" type="motorcycle" begin="0" end="3600" from="198876045#1" to="198876043#2" number="1" departLane="best" departSpeed="max" departPos="random_free"/>
  <flow id="mc30" type="motorcycle" begin="0" end="3600" from="198876045#1" to="198876043#2" number="1" departLane="best" departSpeed="max" departPos="random_free"/>
  <flow id="mc31" type="motorcycle" begin="0" end="3600" from="1276692360" to="1276692364" number="1" departLane="best" departSpeed="max" departPos="random_free"/>
  <flow id="mc32" type="motorcycle" begin="0" end="3600" from="1276692363" to="1276692369" number="1" departLane="best" departSpeed="max" departPos="random_free"/>
  <flow id="mc33" type="motorcycle" begin="0" end="3600" from="1276692361" to="1276692365" number="1" departLane="best" departSpeed="max" departPos="random_free"/>
  <flow id="mc34" type="motorcycle" begin="0" end="3600" from="1276692363" to="1276692369" number="1" departLane="best" departSpeed="max" departPos="random_free"/>
  <flow id="mc35" type="motorcycle" begin="0" end="3600" from="1276692361" to="1276692365" number="1" departLane="best" departSpeed="max" departPos="random_free"/>
  <flow id="mc36" type="motorcycle" begin="0" end="3600" from="-55029244#0" to="28231434" number="1" departLane="best" departSpeed="max" departPos="random_free"/>
  <flow id="mc37" type="motorcycle" begin="0" end="3600" from="1276692361" to="1276692365" number="1" departLane="best" departSpeed="max" departPos="random_free"/>
  <flow id="mc38" type="motorcycle" begin="0" end="3600" from="1276692360" to="1276692364" number="1" departLane="best" departSpeed="max" departPos="random_free"/>
  <flow id="mc39" type="motorcycle" begin="0" end="3600" from="-55029244#0" to="28231434" number="1" departLane="best" departSpeed="max" departPos="random_free"/>
  <flow id="mc40" type="motorcycle" begin="0" end="3600" from="-55029244#0" to="28231434" number="1" departLane="best" departSpeed="max" departPos="random_free"/>
  <flow id="mc41" type="motorcycle" begin="0" end="3600" from="-55029244#0" to="28231434" number="1" departLane="best" departSpeed="max" departPos="random_free"/>
  <flow id="mc42" type="motorcycle" begin="0" end="3600" from="1276692361" to="1276692365" number="1" departLane="best" departSpeed="max" departPos="random_free"/>
  <flow id="mc43" type="motorcycle" begin="0" end="3600" from="198876045#1" to="198876043#2" number="1" departLane="best" departSpeed="max" departPos="random_free"/>
  <flow id="mc44" type="motorcycle" begin="0" end="3600" from="1276692360" to="1276692364" number="1" departLane="best" departSpeed="max" departPos="random_free"/>
  <flow id="mc45" type="motorcycle" begin="0" end="3600" from="1276692361" to="1276692365" number="1" departLane="best" departSpeed="max" departPos="random_free"/>
  <flow id="mc46" type="motorcycle" begin="0" end="3600" from="1276692361" to="1276692365" number="1" departLane="best" departSpeed="max" departPos="random_free"/>
  <flow id="mc47" type="motorcycle" begin="0" end="3600" from="1276692360" to="1276692364" number="1" departLane="best" departSpeed="max" departPos="random_free"/>
  <flow id="mc48" type="motorcycle" begin="0" end="3600" from="198876045#1" to="198876043#2" number="1" departLane="best" departSpeed="max" departPos="random_free"/>
  <flow id="mc49" type="motorcycle" begin="0" end="3600" from="198876045#1" to="198876043#2" number="1" departLane="best" departSpeed="max" departPos="random_free"/>
  <flow id="mc50" type="motorcycle" begin="0" end="3600" from="-55029244#0" to="28231434" number="1" departLane="best" departSpeed="max" departPos="random_free"/>
  <flow id="mc51" type="motorcycle" begin="0" end="3600" from="1276692361" to="1276692365" number="1" departLane="best" departSpeed="max" departPos="random_free"/>
  <flow id="mc52" type="motorcycle" begin="0" end="3600" from="-55029244#0" to="28231434" number="1" departLane="best" departSpeed="max" departPos="random_free"/>
  <flow id="mc53" type="motorcycle" begin="0" end="3600" from="1276692361" to="1276692365" number="1" departLane="best" departSpeed="max" departPos="random_free"/>
  <flow id="mc54" type="motorcycle" begin="0" end="3600" from="1276692360" to="1276692364" number="1" departLane="best" departSpeed="max" departPos="random_free"/>
  <flow id="mc55" type="motorcycle" begin="0" end="3600" from="34241530#0" to="198876042#0" number="1" departLane="best" departSpeed="max" departPos="random_free"/>
  <flow id="mc56" type="motorcycle" begin="0" end="3600" from="1276692363" to="1276692369" number="1" departLane="best" departSpeed="max" departPos="random_free"/>
  <flow id="mc57" type="motorcycle" begin="0" end="3600" from="1276692360" to="1276692364" number="1" departLane="best" departSpeed="max" departPos="random_free"/>
  <flow id="mc58" type="motorcycle" begin="0" end="3600" from="1276692363" to="1276692369" number="1" departLane="best" departSpeed="max" departPos="random_free"/>
  <flow id="mc59" type="motorcycle" begin="0" end="3600" from="198876045#1" to="198876043#2" number="1" departLane="best" departSpeed="max" departPos="random_free"/>
  <flow id="mc60" type="motorcycle" begin="0" end="3600" from="34241530#0" to="198876042#0" number="1" departLane="best" departSpeed="max" departPos="random_free"/>
  <flow id="mc61" type="motorcycle" begin="0" end="3600" from="198876045#1" to="198876043#2" number="1" departLane="best" departSpeed="max" departPos="random_free"/>
  <flow id="mc62" type="motorcycle" begin="0" end="3600" from="-55029244#0" to="28231434" number="1" departLane="best" departSpeed="max" departPos="random_free"/>
  <flow id="mc63" type="motorcycle" begin="0" end="3600" from="1276692360" to="1276692364" number="1" departLane="best" departSpeed="max" departPos="random_free"/>
  <flow id="mc64" type="motorcycle" begin="0" end="3600" from="1276692360" to="1276692364" number="1" departLane="best" departSpeed="max" departPos="random_free"/>
  <flow id="mc65" type="motorcycle" begin="0" end="3600" from="1276692363" to="1276692369" number="1" departLane="best" departSpeed="max" departPos="random_free"/>
  <flow id="mc66" type="motorcycle" begin="0" end="3600" from="1276692360" to="1276692364" number="1" departLane="best" departSpeed="max" departPos="random_free"/>
  <flow id="mc67" type="motorcycle" begin="0" end="3600" from="34241530#0" to="198876042#0" number="1" departLane="best" departSpeed="max" departPos="random_free"/>
  <flow id="mc68" type="motorcycle" begin="0" end="3600" from="-55029244#0" to="28231434" number="1" departLane="best" departSpeed="max" departPos="random_free"/>
  <flow id="mc69" type="motorcycle" begin="0" end="3600" from="-55029244#0" to="28231434" number="1" departLane="best" departSpeed="max" departPos="random_free"/>
  <flow id="mc70" type="motorcycle" begin="0" end="3600" from="34241530#0" to="198876042#0" number="1" departLane="best" departSpeed="max" departPos="random_free"/>
  <flow id="mc71" type="motorcycle" begin="0" end="3600" from="198876045#1" to="198876043#2" number="1" departLane="best" departSpeed="max" departPos="random_free"/>
  <flow id="mc72" type="motorcycle" begin="0" end="3600" from="1276692361" to="1276692365" number="1" departLane="best" departSpeed="max" departPos="random_free"/>
  <flow id="mc73" type="motorcycle" begin="0" end="3600" from="34241530#0" to="198876042#0" number="1" departLane="best" departSpeed="max" departPos="random_free"/>
  <flow id="mc74" type="motorcycle" begin="0" end="3600" from="-55029244#0" to="28231434" number="1" departLane="best" departSpeed="max" departPos="random_free"/>
  <flow id="mc75" type="motorcycle" begin="0" end="3600" from="1276692360" to="1276692364" number="1" departLane="best" departSpeed="max" departPos="random_free"/>
  <flow id="mc76" type="motorcycle" begin="0" end="3600" from="1276692360" to="1276692364" number="1" departLane="best" departSpeed="max" departPos="random_free"/>
  <flow id="mc77" type="motorcycle" begin="0" end="3600" from="198876045#1" to="198876043#2" number="1" departLane="best" departSpeed="max" departPos="random_free"/>
  <flow id="mc78" type="motorcycle" begin="0" end="3600" from="-55029244#0" to="28231434" number="1" departLane="best" departSpeed="max" departPos="random_free"/>
  <flow id="mc79" type="motorcycle" begin="0" end="3600" from="1276692361" to="1276692365" number="1" departLane="best" departSpeed="max" departPos="random_free"/>
  <flow id="mc80" type="motorcycle" begin="0" end="3600" from="1276692360" to="1276692364" number="1" departLane="best" departSpeed="max" departPos="random_free"/>
  <flow id="mc81" type="motorcycle" begin="0" end="3600" from="198876045#1" to="198876043#2" number="1" departLane="best" departSpeed="max" departPos="random_free"/>
  <flow id="mc82" type="motorcycle" begin="0" end="3600" from="-55029244#0" to="28231434" number="1" departLane="best" departSpeed="max" departPos="random_free"/>
  <flow id="mc83" type="motorcycle" begin="0" end="3600" from="1276692360" to="1276692364" number="1" departLane="best" departSpeed="max" departPos="random_free"/>
  <flow id="mc84" type="motorcycle" begin="0" end="3600" from="1276692361" to="1276692365" number="1" departLane="best" departSpeed="max" departPos="random_free"/>
  <flow id="mc85" type="motorcycle" begin="0" end="3600" from="34241530#0" to="198876042#0" number="1" departLane="best" departSpeed="max" departPos="random_free"/>
  <flow id="mc86" type="motorcycle" begin="0" end="3600" from="-55029244#0" to="28231434" number="1" departLane="best" departSpeed="max" departPos="random_free"/>
  <flow id="mc87" type="motorcycle" begin="0" end="3600" from="1276692363" to="1276692369" number="1" departLane="best" departSpeed="max" departPos="random_free"/>
  <flow id="mc88" type="motorcycle" begin="0" end="3600" from="1276692361" to="1276692365" number="1" departLane="best" departSpeed="max" departPos="random_free"/>
  <flow id="mc89" type="motorcycle" begin="0" end="3600" from="1276692363" to="1276692369" number="1" departLane="best" departSpeed="max" departPos="random_free"/>
  <flow id="mc90" type="motorcycle" begin="0" end="3600" from="1276692361" to="1276692365" number="1" departLane="best" departSpeed="max" departPos="random_free"/>
  <flow id="mc91" type="motorcycle" begin="0" end="3600" from="1276692361" to="1276692365" number="1" departLane="best" departSpeed="max" departPos="random_free"/>
  <flow id="mc92" type="motorcycle" begin="0" end="3600" from="-55029244#0" to="28231434" number="1" departLane="best" departSpeed="max" departPos="random_free"/>
  <flow id="mc93" type="motorcycle" begin="0" end="3600" from="34241530#0" to="198876042#0" number="1" departLane="best" departSpeed="max" departPos="random_free"/>
  <flow id="mc94" type="motorcycle" begin="0" end="3600" from="1276692363" to="1276692369" number="1" departLane="best" departSpeed="max" departPos="random_free"/>
  <flow id="mc95" type="motorcycle" begin="0" end="3600" from="1276692360" to="1276692364" number="1" departLane="best" departSpeed="max" departPos="random_free"/>
  <flow id="mc96" type="motorcycle" begin="0" end="3600" from="34241530#0" to="198876042#0" number="1" departLane="best" departSpeed="max" departPos="random_free"/>
  <flow id="mc97" type="motorcycle" begin="0" end="3600" from="1276692360" to="1276692364" number="1" departLane="best" departSpeed="max" departPos="random_free"/>
  <flow id="mc98" type="motorcycle" begin="0" end="3600" from="1276692363" to="1276692369" number="1" departLane="best" departSpeed="max" departPos="random_free"/>
  <flow id="mc99" type="motorcycle" begin="0" end="3600" from="-55029244#0" to="28231434" number="1" departLane="best" departSpeed="max" departPos="random_free"/>
  <flow id="mc100" type="motorcycle" begin="0" end="3600" from="34241530#0" to="198876042#0" number="1" departLane="best" departSpeed="max" departPos="random_free"/>
  <flow id="mc101" type="motorcycle" begin="0" end="3600" from="1276692363" to="1276692369" number="1" departLane="best" departSpeed="max" departPos="random_free"/>
  <flow id="mc102" type="motorcycle" begin="0" end="3600" from="198876045#1" to="198876043#2" number="1" departLane="best" departSpeed="max" departPos="random_free"/>
  <flow id="mc103" type="motorcycle" begin="0" end="3600" from="1276692361" to="1276692365" number="1" departLane="best" departSpeed="max" departPos="random_free"/>
  <flow id="mc104" type="motorcycle" begin="0" end="3600" from="1276692361" to="1276692365" number="1" departLane="best" departSpeed="max" departPos="random_free"/>
  <flow id="mc105" type="motorcycle" begin="0" end="3600" from="1276692360" to="1276692364" number="1" departLane="best" departSpeed="max" departPos="random_free"/>
  <flow id="mc106" type="motorcycle" begin="0" end="3600" from="1276692361" to="1276692365" number="1" departLane="best" departSpeed="max" departPos="random_free"/>
  <flow id="mc107" type="motorcycle" begin="0" end="3600" from="1276692360" to="1276692364" number="1" departLane="best" departSpeed="max" departPos="random_free"/>
  <flow id="mc108" type="motorcycle" begin="0" end="3600" from="1276692360" to="1276692364" number="1" departLane="best" departSpeed="max" departPos="random_free"/>
  <flow id="mc109" type="motorcycle" begin="0" end="3600" from="1276692361" to="1276692365" number="1" departLane="best" departSpeed="max" departPos="random_free"/>
  <flow id="mc110" type="motorcycle" begin="0" end="3600" from="1276692363" to="1276692369" number="1" departLane="best" departSpeed="max" departPos="random_free"/>
  <flow id="mc111" type="motorcycle" begin="0" end="3600" from="34241530#0" to="198876042#0" number="1" departLane="best" departSpeed="max" departPos="random_free"/>
  <flow id="mc112" type="motorcycle" begin="0" end="3600" from="1276692360" to="1276692364" number="1" departLane="best" departSpeed="max" departPos="random_free"/>
  <flow id="mc113" type="motorcycle" begin="0" end="3600" from="34241530#0" to="198876042#0" number="1" departLane="best" departSpeed="max" departPos="random_free"/>
  <flow id="mc114" type="motorcycle" begin="0" end="3600" from="1276692363" to="1276692369" number="1" departLane="best" departSpeed="max" departPos="random_free"/>
  <flow id="mc115" type="motorcycle" begin="0" end="3600" from="-55029244#0" to="28231434" number="1" departLane="best" departSpeed="max" departPos="random_free"/>
  <flow id="mc116" type="motorcycle" begin="0" end="3600" from="1276692363" to="1276692369" number="1" departLane="best" departSpeed="max" departPos="random_free"/>
  <flow id="mc117" type="motorcycle" begin="0" end="3600" from="198876045#1" to="198876043#2" number="1" departLane="best" departSpeed="max" departPos="random_free"/>
  <flow id="mc118" type="motorcycle" begin="0" end="3600" from="-55029244#0" to="28231434" number="1" departLane="best" departSpeed="max" departPos="random_free"/>
  <flow id="mc119" type="motorcycle" begin="0" end="3600" from="34241530#0" to="198876042#0" number="1" departLane="best" departSpeed="max" departPos="random_free"/>
  <flow id="mc120" type="motorcycle" begin="0" end="3600" from="1276692361" to="1276692365" number="1" departLane="best" departSpeed="max" departPos="random_free"/>
  <flow id="mc121" type="motorcycle" begin="0" end="3600" from="198876045#1" to="198876043#2" number="1" departLane="best" departSpeed="max" departPos="random_free"/>
  <flow id="mc122" type="motorcycle" begin="0" end="3600" from="1276692361" to="1276692365" number="1" departLane="best" departSpeed="max" departPos="random_free"/>
  <flow id="mc123" type="motorcycle" begin="0" end="3600" from="198876045#1" to="198876043#2" number="1" departLane="best" departSpeed="max" departPos="random_free"/>
  <flow id="mc124" type="motorcycle" begin="0" end="3600" from="-55029244#0" to="28231434" number="1" departLane="best" departSpeed="max" departPos="random_free"/>
  <flow id="mc125" type="motorcycle" begin="0" end="3600" from="198876045#1" to="198876043#2" number="1" departLane="best" departSpeed="max" departPos="random_free"/>
  <flow id="mc126" type="motorcycle" begin="0" end="3600" from="1276692363" to="1276692369" number="1" departLane="best" departSpeed="max" departPos="random_free"/>
  <flow id="mc127" type="motorcycle" begin="0" end="3600" from="-55029244#0" to="28231434" number="1" departLane="best" departSpeed="max" departPos="random_free"/>
  <flow id="mc128" type="motorcycle" begin="0" end="3600" from="1276692361" to="1276692365" number="1" departLane="best" departSpeed="max" departPos="random_free"/>
  <flow id="mc129" type="motorcycle" begin="0" end="3600" from="34241530#0" to="198876042#0" number="1" departLane="best" departSpeed="max" departPos="random_free"/>
  <flow id="mc130" type="motorcycle" begin="0" end="3600" from="198876045#1" to="198876043#2" number="1" departLane="best" departSpeed="max" departPos="random_free"/>
  <flow id="mc131" type="motorcycle" begin="0" end="3600" from="1276692360" to="1276692364" number="1" departLane="best" departSpeed="max" departPos="random_free"/>
  <flow id="mc132" type="motorcycle" begin="0" end="3600" from="34241530#0" to="198876042#0" number="1" departLane="best" departSpeed="max" departPos="random_free"/>
  <flow id="mc133" type="motorcycle" begin="0" end="3600" from="1276692363" to="1276692369" number="1" departLane="best" departSpeed="max" departPos="random_free"/>
  <flow id="mc134" type="motorcycle" begin="0" end="3600" from="34241530#0" to="198876042#0" number="1" departLane="best" departSpeed="max" departPos="random_free"/>
  <flow id="mc135" type="motorcycle" begin="0" end="3600" from="-55029244#0" to="28231434" number="1" departLane="best" departSpeed="max" departPos="random_free"/>
  <flow id="mc136" type="motorcycle" begin="0" end="3600" from="1276692360" to="1276692364" number="1" departLane="best" departSpeed="max" departPos="random_free"/>
  <flow id="mc137" type="motorcycle" begin="0" end="3600" from="198876045#1" to="198876043#2" number="1" departLane="best" departSpeed="max" departPos="random_free"/>
  <flow id="mc138" type="motorcycle" begin="0" end="3600" from="198876045#1" to="198876043#2" number="1" departLane="best" departSpeed="max" departPos="random_free"/>
  <flow id="mc139" type="motorcycle" begin="0" end="3600" from="198876045#1" to="198876043#2" number="1" departLane="best" departSpeed="max" departPos="random_free"/>
  <flow id="mc140" type="motorcycle" begin="0" end="3600" from="198876045#1" to="198876043#2" number="1" departLane="best" departSpeed="max" departPos="random_free"/>
  <flow id="mc141" type="motorcycle" begin="0" end="3600" from="34241530#0" to="198876042#0" number="1" departLane="best" departSpeed="max" departPos="random_free"/>
  <flow id="mc142" type="motorcycle" begin="0" end="3600" from="34241530#0" to="198876042#0" number="1" departLane="best" departSpeed="max" departPos="random_free"/>
  <flow id="mc143" type="motorcycle" begin="0" end="3600" from="1276692360" to="1276692364" number="1" departLane="best" departSpeed="max" departPos="random_free"/>
  <flow id="mc144" type="motorcycle" begin="0" end="3600" from="-55029244#0" to="28231434" number="1" departLane="best" departSpeed="max" departPos="random_free"/>
  <flow id="mc145" type="motorcycle" begin="0" end="3600" from="-55029244#0" to="28231434" number="1" departLane="best" departSpeed="max" departPos="random_free"/>
  <flow id="mc146" type="motorcycle" begin="0" end="3600" from="-55029244#0" to="28231434" number="1" departLane="best" departSpeed="max" departPos="random_free"/>
  <flow id="mc147" type="motorcycle" begin="0" end="3600" from="198876045#1" to="198876043#2" number="1" departLane="best" departSpeed="max" departPos="random_free"/>
  <flow id="mc148" type="motorcycle" begin="0" end="3600" from="34241530#0" to="198876042#0" number="1" departLane="best" departSpeed="max" departPos="random_free"/>
  <flow id="mc149" type="motorcycle" begin="0" end="3600" from="1276692361" to="1276692365" number="1" departLane="best" departSpeed="max" departPos="random_free"/>
  <flow id="mc150" type="motorcycle" begin="0" end="3600" from="198876045#1" to="198876043#2" number="1" departLane="best" departSpeed="max" departPos="random_free"/>
  <flow id="mc151" type="motorcycle" begin="0" end="3600" from="-55029244#0" to="28231434" number="1" departLane="best" departSpeed="max" departPos="random_free"/>
  <flow id="mc152" type="motorcycle" begin="0" end="3600" from="1276692360" to="1276692364" number="1" departLane="best" departSpeed="max" departPos="random_free"/>
  <flow id="mc153" type="motorcycle" begin="0" end="3600" from="1276692360" to="1276692364" number="1" departLane="best" departSpeed="max" departPos="random_free"/>
  <flow id="mc154" type="motorcycle" begin="0" end="3600" from="1276692361" to="1276692365" number="1" departLane="best" departSpeed="max" departPos="random_free"/>
  <flow id="mc155" type="motorcycle" begin="0" end="3600" from="1276692360" to="1276692364" number="1" departLane="best" departSpeed="max" departPos="random_free"/>
  <flow id="mc156" type="motorcycle" begin="0" end="3600" from="1276692363" to="1276692369" number="1" departLane="best" departSpeed="max" departPos="random_free"/>
  <flow id="mc157" type="motorcycle" begin="0" end="3600" from="1276692360" to="1276692364" number="1" departLane="best" departSpeed="max" departPos="random_free"/>
  <flow id="mc158" type="motorcycle" begin="0" end="3600" from="-55029244#0" to="28231434" number="1" departLane="best" departSpeed="max" departPos="random_free"/>
  <flow id="mc159" type="motorcycle" begin="0" end="3600" from="198876045#1" to="198876043#2" number="1" departLane="best" departSpeed="max" departPos="random_free"/>
  <flow id="mc160" type="motorcycle" begin="0" end="3600" from="1276692361" to="1276692365" number="1" departLane="best" departSpeed="max" departPos="random_free"/>
  <flow id="mc161" type="motorcycle" begin="0" end="3600" from="1276692360" to="1276692364" number="1" departLane="best" departSpeed="max" departPos="random_free"/>
  <flow id="mc162" type="motorcycle" begin="0" end="3600" from="1276692361" to="1276692365" number="1" departLane="best" departSpeed="max" departPos="random_free"/>
  <flow id="mc163" type="motorcycle" begin="0" end="3600" from="1276692363" to="1276692369" number="1" departLane="best" departSpeed="max" departPos="random_free"/>
  <flow id="mc164" type="motorcycle" begin="0" end="3600" from="34241530#0" to="198876042#0" number="1" departLane="best" departSpeed="max" departPos="random_free"/>
  <flow id="mc165" type="motorcycle" begin="0" end="3600" from="198876045#1" to="198876043#2" number="1" departLane="best" departSpeed="max" departPos="random_free"/>
  <flow id="mc166" type="motorcycle" begin="0" end="3600" from="1276692360" to="1276692364" number="1" departLane="best" departSpeed="max" departPos="random_free"/>
  <flow id="mc167" type="motorcycle" begin="0" end="3600" from="1276692361" to="1276692365" number="1" departLane="best" departSpeed="max" departPos="random_free"/>
  <flow id="mc168" type="motorcycle" begin="0" end="3600" from="1276692361" to="1276692365" number="1" departLane="best" departSpeed="max" departPos="random_free"/>
  <flow id="mc169" type="motorcycle" begin="0" end="3600" from="-55029244#0" to="28231434" number="1" departLane="best" departSpeed="max" departPos="random_free"/>
  <flow id="mc170" type="motorcycle" begin="0" end="3600" from="1276692363" to="1276692369" number="1" departLane="best" departSpeed="max" departPos="random_free"/>
  <flow id="mc171" type="motorcycle" begin="0" end="3600" from="1276692363" to="1276692369" number="1" departLane="best" departSpeed="max" departPos="random_free"/>
  <flow id="mc172" type="motorcycle" begin="0" end="3600" from="34241530#0" to="198876042#0" number="1" departLane="best" departSpeed="max" departPos="random_free"/>
  <flow id="mc173" type="motorcycle" begin="0" end="3600" from="-55029244#0" to="28231434" number="1" departLane="best" departSpeed="max" departPos="random_free"/>
  <flow id="mc174" type="motorcycle" begin="0" end="3600" from="1276692361" to="1276692365" number="1" departLane="best" departSpeed="max" departPos="random_free"/>
  <flow id="mc175" type="motorcycle" begin="0" end="3600" from="1276692363" to="1276692369" number="1" departLane="best" departSpeed="max" departPos="random_free"/>
  <flow id="mc176" type="motorcycle" begin="0" end="3600" from="1276692363" to="1276692369" number="1" departLane="best" departSpeed="max" departPos="random_free"/>
  <flow id="mc177" type="motorcycle" begin="0" end="3600" from="1276692360" to="1276692364" number="1" departLane="best" departSpeed="max" departPos="random_free"/>
  <flow id="mc178" type="motorcycle" begin="0" end="3600" from="34241530#0" to="198876042#0" number="1" departLane="best" departSpeed="max" departPos="random_free"/>
  <flow id="mc179" type="motorcycle" begin="0" end="3600" from="1276692360" to="1276692364" number="1" departLane="best" departSpeed="max" departPos="random_free"/>