<?xml version='1.0' encoding='UTF-8'?>
<routes>
  <vType id="motorcycle" vClass="motorcycle" color="1,0,0" length="2.0" maxSpeed="13.9" guiShape="motorcycle"/>
  <vType id="passenger" vClass="passenger" color="0,0,1" length="5.0" maxSpeed="13.9" guiShape="passenger"/>
  <flow id="mc659" type="motorcycle" begin="0" end="3600" from="1276692366" to="198876045#1" departPos="random_free" departSpeed="max" departLane="best" number="1"/>
  <flow id="mc814" type="motorcycle" begin="0" end="3600" from="308724899" to="193253433#2" departPos="random_free" departSpeed="max" departLane="best" number="1"/>
  <flow id="mc404" type="motorcycle" begin="0" end="3600" from="308724899" to="198876045#1" departPos="random_free" departSpeed="max" departLane="best" number="1"/>
  <flow id="mc963" type="motorcycle" begin="0" end="3600" from="1276692360" to="1276692365" departPos="random_free" departSpeed="max" departLane="best" number="1"/>
  <flow id="mc691" type="motorcycle" begin="0" end="3600" from="193253433#2" to="198876043#0" departPos="random_free" departSpeed="max" departLane="best" number="1"/>
  <flow id="mc121" type="motorcycle" begin="0" end="3600" from="198876043#3" to="1276692361" departPos="random_free" departSpeed="max" departLane="best" number="1"/>
  <flow id="mc390" type="motorcycle" begin="0" end="3600" from="23241821#0" to="1276692364" departPos="random_free" departSpeed="max" departLane="best" number="1"/>
  <flow id="mc784" type="motorcycle" begin="0" end="3600" from="198876045#1" to="28231434" departPos="random_free" departSpeed="max" departLane="best" number="1"/>
  <flow id="mc912" type="motorcycle" begin="0" end="3600" from="198876043#2" to="-28231434" departPos="random_free" departSpeed="max" departLane="best" number="1"/>
  <flow id="mc858" type="motorcycle" begin="0" end="3600" from="34241530#0" to="1276692367" departPos="random_free" departSpeed="max" departLane="best" number="1"/>
  <flow id="mc549" type="motorcycle" begin="0" end="3600" from="34241530#0" to="193253427#0" departPos="random_free" departSpeed="max" departLane="best" number="1"/>
  <flow id="mc705" type="motorcycle" begin="0" end="3600" from="1276692362" to="-193253435" departPos="random_free" departSpeed="max" departLane="best" number="1"/>
  <flow id="mc120" type="motorcycle" begin="0" end="3600" from="34241530#0" to="198876043#0" departPos="random_free" departSpeed="max" departLane="best" number="1"/>
  <flow id="mc829" type="motorcycle" begin="0" end="3600" from="1276692366" to="198876042#0" departPos="random_free" departSpeed="max" departLane="best" number="1"/>
  <flow id="mc822" type="motorcycle" begin="0" end="3600" from="1276692364" to="198876045#1" departPos="random_free" departSpeed="max" departLane="best" number="1"/>
  <flow id="mc285" type="motorcycle" begin="0" end="3600" from="1276692369" to="1276692364" departPos="random_free" departSpeed="max" departLane="best" number="1"/>
  <flow id="mc932" type="motorcycle" begin="0" end="3600" from="28231434" to="1276692368" departPos="random_free" departSpeed="max" departLane="best" number="1"/>
  <flow id="mc653" type="motorcycle" begin="0" end="3600" from="198876045#1" to="28231434" departPos="random_free" departSpeed="max" departLane="best" number="1"/>
  <flow id="mc443" type="motorcycle" begin="0" end="3600" from="198876045#1" to="1276692362" departPos="random_free" departSpeed="max" departLane="best" number="1"/>
  <flow id="mc841" type="motorcycle" begin="0" end="3600" from="-193253435" to="1276692362" departPos="random_free" departSpeed="max" departLane="best" number="1"/>
  <flow id="mc924" type="motorcycle" begin="0" end="3600" from="1276692368" to="1276692362" departPos="random_free" departSpeed="max" departLane="best" number="1"/>
  <flow id="mc575" type="motorcycle" begin="0" end="3600" from="23241821#0" to="1276692364" departPos="random_free" departSpeed="max" departLane="best" number="1"/>
  <flow id="mc719" type="motorcycle" begin="0" end="3600" from="198876043#2" to="1276692363" departPos="random_free" departSpeed="max" departLane="best" number="1"/>
  <flow id="mc836" type="motorcycle" begin="0" end="3600" from="193253427#0" to="-55029244#0" departPos="random_free" departSpeed="max" departLane="best" number="1"/>
  <flow id="mc903" type="motorcycle" begin="0" end="3600" from="198876043#2" to="1276692362" departPos="random_free" departSpeed="max" departLane="best" number="1"/>
  <flow id="mc518" type="motorcycle" begin="0" end="3600" from="222682222#1" to="1276692369" departPos="random_free" departSpeed="max" departLane="best" number="1"/>
  <flow id="mc172" type="motorcycle" begin="0" end="3600" from="198876042#0" to="308724899" departPos="random_free" departSpeed="max" departLane="best" number="1"/>
  <flow id="mc839" type="motorcycle" begin="0" end="3600" from="23241821#0" to="1276692363" departPos="random_free" departSpeed="max" departLane="best" number="1"/>
  <flow id="mc344" type="motorcycle" begin="0" end="3600" from="1276692367" to="1276692363" departPos="random_free" departSpeed="max" departLane="best" number="1"/>
  <flow id="mc477" type="motorcycle" begin="0" end="3600" from="1276692363" to="-193253435" departPos="random_free" departSpeed="max" departLane="best" number="1"/>
  <flow id="mc756" type="motorcycle" begin="0" end="3600" from="1276692365" to="308724899" departPos="random_free" departSpeed="max" departLane="best" number="1"/>
  <flow id="mc75" type="motorcycle" begin="0" end="3600" from="1276692361" to="193253433#2" departPos="random_free" departSpeed="max" departLane="best" number="1"/>
  <flow id="mc667" type="motorcycle" begin="0" end="3600" from="23241821#0" to="198876043#2" departPos="random_free" departSpeed="max" departLane="best" number="1"/>
  <flow id="mc428" type="motorcycle" begin="0" end="3600" from="-193253435" to="198876042#0" departPos="random_free" departSpeed="max" departLane="best" number="1"/>
  <flow id="mc626" type="motorcycle" begin="0" end="3600" from="1276692365" to="198876043#0" departPos="random_free" departSpeed="max" departLane="best" number="1"/>
  <flow id="mc16" type="motorcycle" begin="0" end="3600" from="-55029244#0" to="198876043#2" departPos="random_free" departSpeed="max" departLane="best" number="1"/>
  <flow id="mc794" type="motorcycle" begin="0" end="3600" from="308724899" to="198876042#0" departPos="random_free" departSpeed="max" departLane="best" number="1"/>
  <flow id="mc55" type="motorcycle" begin="0" end="3600" from="1276692362" to="1276692365" departPos="random_free" departSpeed="max" departLane="best" number="1"/>
  <flow id="mc94" type="motorcycle" begin="0" end="3600" from="198876043#2" to="198876042#0" departPos="random_free" departSpeed="max" departLane="best" number="1"/>
  <flow id="mc508" type="motorcycle" begin="0" end="3600" from="198876042#0" to="198876043#0" departPos="random_free" departSpeed="max" departLane="best" number="1"/>
  <flow id="mc185" type="motorcycle" begin="0" end="3600" from="1276692366" to="198876043#3" departPos="random_free" departSpeed="max" departLane="best" number="1"/>
  <flow id="mc489" type="motorcycle" begin="0" end="3600" from="1276692368" to="-193253435" departPos="random_free" departSpeed="max" departLane="best" number="1"/>
  <flow id="mc28" type="motorcycle" begin="0" end="3600" from="1276692365" to="193253433#2" departPos="random_free" departSpeed="max" departLane="best" number="1"/>
  <flow id="mc496" type="motorcycle" begin="0" end="3600" from="1276692362" to="193253427#0" departPos="random_free" departSpeed="max" departLane="best" number="1"/>
  <flow id="mc907" type="motorcycle" begin="0" end="3600" from="308724899" to="34241530#0" departPos="random_free" departSpeed="max" departLane="best" number="1"/>
  <flow id="mc268" type="motorcycle" begin="0" end="3600" from="28231434" to="198876045#1" departPos="random_free" departSpeed="max" departLane="best" number="1"/>
  <flow id="mc944" type="motorcycle" begin="0" end="3600" from="1276692368" to="-193253435" departPos="random_free" departSpeed="max" departLane="best" number="1"/>
  <flow id="mc363" type="motorcycle" begin="0" end="3600" from="308724899" to="198876043#2" departPos="random_free" departSpeed="max" departLane="best" number="1"/>
  <flow id="mc299" type="motorcycle" begin="0" end="3600" from="-28231434" to="1276692365" departPos="random_free" departSpeed="max" departLane="best" number="1"/>
  <flow id="mc248" type="motorcycle" begin="0" end="3600" from="1276692368" to="1276692363" departPos="random_free" departSpeed="max" departLane="best" number="1"/>
  <flow id="mc672" type="motorcycle" begin="0" end="3600" from="1276692365" to="198876045#1" departPos="random_free" departSpeed="max" departLane="best" number="1"/>
  <flow id="mc359" type="motorcycle" begin="0" end="3600" from="1276692362" to="222682222#1" departPos="random_free" departSpeed="max" departLane="best" number="1"/>
  <flow id="mc482" type="motorcycle" begin="0" end="3600" from="-193253435" to="1276692361" departPos="random_free" departSpeed="max" departLane="best" number="1"/>
  <flow id="mc362" type="motorcycle" begin="0" end="3600" from="198876043#3" to="193253433#2" departPos="random_free" departSpeed="max" departLane="best" number="1"/>
  <flow id="mc519" type="motorcycle" begin="0" end="3600" from="198876045#1" to="1276692367" departPos="random_free" departSpeed="max" departLane="best" number="1"/>
  <flow id="mc171" type="motorcycle" begin="0" end="3600" from="1276692361" to="193253427#0" departPos="random_free" departSpeed="max" departLane="best" number="1"/>
  <flow id="mc155" type="motorcycle" begin="0" end="3600" from="-55029244#0" to="1276692360" departPos="random_free" departSpeed="max" departLane="best" number="1"/>
  <flow id="mc950" type="motorcycle" begin="0" end="3600" from="1276692369" to="1276692364" departPos="random_free" departSpeed="max" departLane="best" number="1"/>
  <flow id="mc210" type="motorcycle" begin="0" end="3600" from="1276692369" to="28231434" departPos="random_free" departSpeed="max" departLane="best" number="1"/>
  <flow id="mc126" type="motorcycle" begin="0" end="3600" from="1276692361" to="1276692362" departPos="random_free" departSpeed="max" departLane="best" number="1"/>
  <flow id="mc846" type="motorcycle" begin="0" end="3600" from="1276692365" to="-28231434" departPos="random_free" departSpeed="max" departLane="best" number="1"/>
  <flow id="mc711" type="motorcycle" begin="0" end="3600" from="1276692368" to="28231434" departPos="random_free" departSpeed="max" departLane="best" number="1"/>
  <flow id="mc374" type="motorcycle" begin="0" end="3600" from="1276692366" to="-193253435" departPos="random_free" departSpeed="max" departLane="best" number="1"/>
  <flow id="mc237" type="motorcycle" begin="0" end="3600" from="-28231434" to="-55029244#0" departPos="random_free" departSpeed="max" departLane="best" number="1"/>
  <flow id="mc787" type="motorcycle" begin="0" end="3600" from="193253427#0" to="193253433#2" departPos="random_free" departSpeed="max" departLane="best" number="1"/>
  <flow id="mc869" type="motorcycle" begin="0" end="3600" from="193253433#2" to="1276692367" departPos="random_free" departSpeed="max" departLane="best" number="1"/>
  <flow id="mc893" type="motorcycle" begin="0" end="3600" from="23241821#0" to="-193253435" departPos="random_free" departSpeed="max" departLane="best" number="1"/>
  <flow id="mc923" type="motorcycle" begin="0" end="3600" from="198876043#0" to="-55029244#0" departPos="random_free" departSpeed="max" departLane="best" number="1"/>
  <flow id="mc879" type="motorcycle" begin="0" end="3600" from="23241821#0" to="-55029244#0" departPos="random_free" departSpeed="max" departLane="best" number="1"/>
  <flow id="mc872" type="motorcycle" begin="0" end="3600" from="198876043#3" to="198876042#0" departPos="random_free" departSpeed="max" departLane="best" number="1"/>
  <flow id="mc148" type="motorcycle" begin="0" end="3600" from="1276692367" to="308724899" departPos="random_free" departSpeed="max" departLane="best" number="1"/>
  <flow id="mc847" type="motorcycle" begin="0" end="3600" from="198876045#1" to="1276692360" departPos="random_free" departSpeed="max" departLane="best" number="1"/>
  <flow id="mc753" type="motorcycle" begin="0" end="3600" from="1276692369" to="1276692361" departPos="random_free" departSpeed="max" departLane="best" number="1"/>
  <flow id="mc494" type="motorcycle" begin="0" end="3600" from="-193253435" to="1276692367" departPos="random_free" departSpeed="max" departLane="best" number="1"/>
  <flow id="mc138" type="motorcycle" begin="0" end="3600" from="28231434" to="193253433#2" departPos="random_free" departSpeed="max" departLane="best" number="1"/>
  <flow id="mc610" type="motorcycle" begin="0" end="3600" from="1276692362" to="222682222#1" departPos="random_free" departSpeed="max" departLane="best" number="1"/>
  <flow id="mc127" type="motorcycle" begin="0" end="3600" from="198876043#2" to="1276692369" departPos="random_free" departSpeed="max" departLane="best" number="1"/>
  <flow id="mc557" type="motorcycle" begin="0" end="3600" from="1276692361" to="222682222#1" departPos="random_free" departSpeed="max" departLane="best" number="1"/>
  <flow id="mc523" type="motorcycle" begin="0" end="3600" from="308724899" to="1276692363" departPos="random_free" departSpeed="max" departLane="best" number="1"/>
  <flow id="mc380" type="motorcycle" begin="0" end="3600" from="1276692362" to="222682222#1" departPos="random_free" departSpeed="max" departLane="best" number="1"/>
  <flow id="mc897" type="motorcycle" begin="0" end="3600" from="-193253435" to="1276692368" departPos="random_free" departSpeed="max" departLane="best" number="1"/>
  <flow id="mc692" type="motorcycle" begin="0" end="3600" from="198876043#3" to="198876042#0" departPos="random_free" departSpeed="max" departLane="best" number="1"/>
  <flow id="mc173" type="motorcycle" begin="0" end="3600" from="1276692362" to="193253427#0" departPos="random_free" departSpeed="max" departLane="best" number="1"/>
  <flow id="mc506" type="motorcycle" begin="0" end="3600" from="1276692365" to="198876043#2" departPos="random_free" departSpeed="max" departLane="best" number="1"/>
  <flow id="mc820" type="motorcycle" begin="0" end="3600" from="34241530#0" to="198876043#2" departPos="random_free" departSpeed="max" departLane="best" number="1"/>
  <flow id="mc474" type="motorcycle" begin="0" end="3600" from="1276692365" to="1276692363" departPos="random_free" departSpeed="max" departLane="best" number="1"/>
  <flow id="mc438" type="motorcycle" begin="0" end="3600" from="193253433#2" to="1276692362" departPos="random_free" departSpeed="max" departLane="best" number="1"/>
  <flow id="mc277" type="motorcycle" begin="0" end="3600" from="1276692369" to="308724899" departPos="random_free" departSpeed="max" departLane="best" number="1"/>
  <flow id="mc755" type="motorcycle" begin="0" end="3600" from="222682222#1" to="198876043#3" departPos="random_free" departSpeed="max" departLane="best" number="1"/>
  <flow id="mc349" type="motorcycle" begin="0" end="3600" from="198876043#3" to="1276692368" departPos="random_free" departSpeed="max" departLane="best" number="1"/>
  <flow id="mc596" type="motorcycle" begin="0" end="3600" from="1276692361" to="198876045#1" departPos="random_free" departSpeed="max" departLane="best" number="1"/>
  <flow id="mc607" type="motorcycle" begin="0" end="3600" from="198876045#1" to="198876043#3" departPos="random_free" departSpeed="max" departLane="best" number="1"/>
  <flow id="mc676" type="motorcycle" begin="0" end="3600" from="-193253435" to="198876045#1" departPos="random_free" departSpeed="max" departLane="best" number="1"/>
  <flow id="mc601" type="motorcycle" begin="0" end="3600" from="1276692367" to="-55029244#0" departPos="random_free" departSpeed="max" departLane="best" number="1"/>
  <flow id="mc27" type="motorcycle" begin="0" end="3600" from="198876043#3" to="1276692362" departPos="random_free" departSpeed="max" departLane="best" number="1"/>
  <flow id="mc727" type="motorcycle" begin="0" end="3600" from="198876043#3" to="193253433#2" departPos="random_free" departSpeed="max" departLane="best" number="1"/>
  <flow id="mc562" type="motorcycle" begin="0" end="3600" from="222682222#1" to="1276692365" departPos="random_free" departSpeed="max" departLane="best" number="1"/>
  <flow id="mc614" type="motorcycle" begin="0" end="3600" from="222682222#1" to="23241821#0" departPos="random_free" departSpeed="max" departLane="best" number="1"/>
  <flow id="mc987" type="motorcycle" begin="0" end="3600" from="1276692366" to="308724899" departPos="random_free" departSpeed="max" departLane="best" number="1"/>
  <flow id="mc979" type="motorcycle" begin="0" end="3600" from="1276692364" to="1276692367" departPos="random_free" departSpeed="max" departLane="best" number="1"/>
  <flow id="mc113" type="motorcycle" begin="0" end="3600" from="1276692365" to="198876043#2" departPos="random_free" departSpeed="max" departLane="best" number="1"/>
  <flow id="mc769" type="motorcycle" begin="0" end="3600" from="1276692363" to="-28231434" departPos="random_free" departSpeed="max" departLane="best" number="1"/>
  <flow id="mc242" type="motorcycle" begin="0" end="3600" from="198876043#0" to="1276692361" departPos="random_free" departSpeed="max" departLane="best" number="1"/>
  <flow id="mc710" type="motorcycle" begin="0" end="3600" from="1276692362" to="34241530#0" departPos="random_free" departSpeed="max" departLane="best" number="1"/>
  <flow id="mc366" type="motorcycle" begin="0" end="3600" from="198876043#2" to="28231434" departPos="random_free" departSpeed="max" departLane="best" number="1"/>
  <flow id="mc860" type="motorcycle" begin="0" end="3600" from="222682222#1" to="198876043#0" departPos="random_free" departSpeed="max" departLane="best" number="1"/>
  <flow id="mc469" type="motorcycle" begin="0" end="3600" from="193253427#0" to="34241530#0" departPos="random_free" departSpeed="max" departLane="best" number="1"/>
  <flow id="mc654" type="motorcycle" begin="0" end="3600" from="1276692362" to="308724899" departPos="random_free" departSpeed="max" departLane="best" number="1"/>
  <flow id="mc479" type="motorcycle" begin="0" end="3600" from="34241530#0" to="198876042#0" departPos="random_free" departSpeed="max" departLane="best" number="1"/>
  <flow id="mc218" type="motorcycle" begin="0" end="3600" from="1276692362" to="193253433#2" departPos="random_free" departSpeed="max" departLane="best" number="1"/>
  <flow id="mc578" type="motorcycle" begin="0" end="3600" from="198876042#0" to="1276692369" departPos="random_free" departSpeed="max" departLane="best" number="1"/>
  <flow id="mc434" type="motorcycle" begin="0" end="3600" from="308724899" to="198876042#0" departPos="random_free" departSpeed="max" departLane="best" number="1"/>
  <flow id="mc193" type="motorcycle" begin="0" end="3600" from="-28231434" to="198876043#2" departPos="random_free" departSpeed="max" departLane="best" number="1"/>
  <flow id="mc346" type="motorcycle" begin="0" end="3600" from="1276692365" to="1276692360" departPos="random_free" departSpeed="max" departLane="best" number="1"/>
  <flow id="mc414" type="motorcycle" begin="0" end="3600" from="193253427#0" to="1276692367" departPos="random_free" departSpeed="max" departLane="best" number="1"/>
  <flow id="mc734" type="motorcycle" begin="0" end="3600" from="-55029244#0" to="34241530#0" departPos="random_free" departSpeed="max" departLane="best" number="1"/>
  <flow id="mc98" type="motorcycle" begin="0" end="3600" from="1276692367" to="308724899" departPos="random_free" departSpeed="max" departLane="best" number="1"/>
  <flow id="mc399" type="motorcycle" begin="0" end="3600" from="1276692361" to="222682222#1" departPos="random_free" departSpeed="max" departLane="best" number="1"/>
  <flow id="mc738" type="motorcycle" begin="0" end="3600" from="1276692362" to="222682222#1" departPos="random_free" departSpeed="max" departLane="best" number="1"/>
  <flow id="mc65" type="motorcycle" begin="0" end="3600" from="308724899" to="23241821#0" departPos="random_free" departSpeed="max" departLane="best" number="1"/>
  <flow id="mc353" type="motorcycle" begin="0" end="3600" from="1276692360" to="193253427#0" departPos="random_free" departSpeed="max" departLane="best" number="1"/>
  <flow id="mc900" type="motorcycle" begin="0" end="3600" from="198876043#2" to="1276692362" departPos="random_free" departSpeed="max" departLane="best" number="1"/>
  <flow id="mc934" type="motorcycle" begin="0" end="3600" from="1276692368" to="1276692362" departPos="random_free" departSpeed="max" departLane="best" number="1"/>
  <flow id="mc908" type="motorcycle" begin="0" end="3600" from="308724899" to="-28231434" departPos="random_free" departSpeed="max" departLane="best" number="1"/>
  <flow id="mc587" type="motorcycle" begin="0" end="3600" from="193253427#0" to="1276692366" departPos="random_free" departSpeed="max" departLane="best" number="1"/>
  <flow id="mc226" type="motorcycle" begin="0" end="3600" from="308724899" to="222682222#1" departPos="random_free" departSpeed="max" departLane="best" number="1"/>
  <flow id="mc358" type="motorcycle" begin="0" end="3600" from="193253427#0" to="-193253435" departPos="random_free" departSpeed="max" departLane="best" number="1"/>
  <flow id="mc240" type="motorcycle" begin="0" end="3600" from="1276692361" to="1276692366" departPos="random_free" departSpeed="max" departLane="best" number="1"/>
  <flow id="mc712" type="motorcycle" begin="0" end="3600" from="1276692360" to="1276692369" departPos="random_free" departSpeed="max" departLane="best" number="1"/>
  <flow id="mc238" type="motorcycle" begin="0" end="3600" from="1276692366" to="198876042#0" departPos="random_free" departSpeed="max" departLane="best" number="1"/>
  <flow id="mc295" type="motorcycle" begin="0" end="3600" from="-28231434" to="308724899" departPos="random_free" departSpeed="max" departLane="best" number="1"/>
  <flow id="mc865" type="motorcycle" begin="0" end="3600" from="1276692367" to="1276692369" departPos="random_free" departSpeed="max" departLane="best" number="1"/>
  <flow id="mc996" type="motorcycle" begin="0" end="3600" from="198876043#3" to="34241530#0" departPos="random_free" departSpeed="max" departLane="best" number="1"/>
  <flow id="mc736" type="motorcycle" begin="0" end="3600" from="198876045#1" to="-193253435" departPos="random_free" departSpeed="max" departLane="best" number="1"/>
  <flow id="mc798" type="motorcycle" begin="0" end="3600" from="-55029244#0" to="198876042#0" departPos="random_free" departSpeed="max" departLane="best" number="1"/>
  <flow id="mc204" type="motorcycle" begin="0" end="3600" from="198876043#3" to="198876043#2" departPos="random_free" departSpeed="max" departLane="best" number="1"/>
  <flow id="mc76" type="motorcycle" begin="0" end="3600" from="-28231434" to="1276692369" departPos="random_free" departSpeed="max" departLane="best" number="1"/>
  <flow id="mc275" type="motorcycle" begin="0" end="3600" from="-193253435" to="198876043#2" departPos="random_free" departSpeed="max" departLane="best" number="1"/>
  <flow id="mc866" type="motorcycle" begin="0" end="3600" from="1276692360" to="1276692364" departPos="random_free" departSpeed="max" departLane="best" number="1"/>
  <flow id="mc649" type="motorcycle" begin="0" end="3600" from="1276692363" to="-28231434" departPos="random_free" departSpeed="max" departLane="best" number="1"/>
  <flow id="mc79" type="motorcycle" begin="0" end="3600" from="198876043#3" to="1276692367" departPos="random_free" departSpeed="max" departLane="best" number="1"/>
  <flow id="mc645" type="motorcycle" begin="0" end="3600" from="23241821#0" to="198876043#2" departPos="random_free" departSpeed="max" departLane="best" number="1"/>
  <flow id="mc22" type="motorcycle" begin="0" end="3600" from="1276692363" to="1276692362" departPos="random_free" departSpeed="max" departLane="best" number="1"/>
  <flow id="mc378" type="motorcycle" begin="0" end="3600" from="1276692362" to="198876043#2" departPos="random_free" departSpeed="max" departLane="best" number="1"/>
  <flow id="mc888" type="motorcycle" begin="0" end="3600" from="1276692361" to="34241530#0" departPos="random_free" departSpeed="max" departLane="best" number="1"/>
  <flow id="mc548" type="motorcycle" begin="0" end="3600" from="1276692365" to="-193253435" departPos="random_free" departSpeed="max" departLane="best" number="1"/>
  <flow id="mc96" type="motorcycle" begin="0" end="3600" from="1276692364" to="1276692361" departPos="random_free" departSpeed="max" departLane="best" number="1"/>
  <flow id="mc571" type="motorcycle" begin="0" end="3600" from="1276692362" to="198876045#1" departPos="random_free" departSpeed="max" departLane="best" number="1"/>
  <flow id="mc757" type="motorcycle" begin="0" end="3600" from="198876043#2" to="-28231434" departPos="random_free" departSpeed="max" departLane="best" number="1"/>
  <flow id="mc538" type="motorcycle" begin="0" end="3600" from="1276692360" to="308724899" departPos="random_free" departSpeed="max" departLane="best" number="1"/>
  <flow id="mc54" type="motorcycle" begin="0" end="3600" from="198876043#3" to="1276692366" departPos="random_free" departSpeed="max" departLane="best" number="1"/>
  <flow id="mc783" type="motorcycle" begin="0" end="3600" from="193253427#0" to="1276692366" departPos="random_free" departSpeed="max" departLane="best" number="1"/>
  <flow id="mc927" type="motorcycle" begin="0" end="3600" from="198876042#0" to="-193253435" departPos="random_free" departSpeed="max" departLane="best" number="1"/>
  <flow id="mc972" type="motorcycle" begin="0" end="3600" from="1276692364" to="198876043#0" departPos="random_free" departSpeed="max" departLane="best" number="1"/>
  <flow id="mc745" type="motorcycle" begin="0" end="3600" from="34241530#0" to="-55029244#0" departPos="random_free" departSpeed="max" departLane="best" number="1"/>
  <flow id="mc878" type="motorcycle" begin="0" end="3600" from="198876043#2" to="28231434" departPos="random_free" departSpeed="max" departLane="best" number="1"/>
  <flow id="mc802" type="motorcycle" begin="0" end="3600" from="1276692367" to="193253433#2" departPos="random_free" departSpeed="max" departLane="best" number="1"/>
  <flow id="mc639" type="motorcycle" begin="0" end="3600" from="28231434" to="193253433#2" departPos="random_free" departSpeed="max" departLane="best" number="1"/>
  <flow id="mc827" type="motorcycle" begin="0" end="3600" from="1276692362" to="28231434" departPos="random_free" departSpeed="max" departLane="best" number="1"/>
  <flow id="mc175" type="motorcycle" begin="0" end="3600" from="1276692367" to="1276692361" departPos="random_free" departSpeed="max" departLane="best" number="1"/>
  <flow id="mc376" type="motorcycle" begin="0" end="3600" from="1276692365" to="198876043#3" departPos="random_free" departSpeed="max" departLane="best" number="1"/>
  <flow id="mc337" type="motorcycle" begin="0" end="3600" from="23241821#0" to="198876045#1" departPos="random_free" departSpeed="max" departLane="best" number="1"/>
  <flow id="mc114" type="motorcycle" begin="0" end="3600" from="1276692364" to="308724899" departPos="random_free" departSpeed="max" departLane="best" number="1"/>
  <flow id="mc280" type="motorcycle" begin="0" end="3600" from="198876043#0" to="198876043#2" departPos="random_free" departSpeed="max" departLane="best" number="1"/>
  <flow id="mc3" type="motorcycle" begin="0" end="3600" from="-55029244#0" to="28231434" departPos="random_free" departSpeed="max" departLane="best" number="1"/>
  <flow id="mc45" type="motorcycle" begin="0" end="3600" from="1276692362" to="1276692368" departPos="random_free" departSpeed="max" departLane="best" number="1"/>
  <flow id="mc700" type="motorcycle" begin="0" end="3600" from="1276692360" to="198876045#1" departPos="random_free" departSpeed="max" departLane="best" number="1"/>
  <flow id="mc202" type="motorcycle" begin="0" end="3600" from="193253433#2" to="23241821#0" departPos="random_free" departSpeed="max" departLane="best" number="1"/>
  <flow id="mc483" type="motorcycle" begin="0" end="3600" from="1276692361" to="-55029244#0" departPos="random_free" departSpeed="max" departLane="best" number="1"/>
  <flow id="mc582" type="motorcycle" begin="0" end="3600" from="193253433#2" to="1276692364" departPos="random_free" departSpeed="max" departLane="best" number="1"/>
  <flow id="mc971" type="motorcycle" begin="0" end="3600" from="198876043#0" to="1276692368" departPos="random_free" departSpeed="max" departLane="best" number="1"/>
  <flow id="mc129" type="motorcycle" begin="0" end="3600" from="198876043#2" to="1276692368" departPos="random_free" departSpeed="max" departLane="best" number="1"/>
  <flow id="mc713" type="motorcycle" begin="0" end="3600" from="198876043#3" to="-55029244#0" departPos="random_free" departSpeed="max" departLane="best" number="1"/>
  <flow id="mc497" type="motorcycle" begin="0" end="3600" from="1276692362" to="-193253435" departPos="random_free" departSpeed="max" departLane="best" number="1"/>
  <flow id="mc10" type="motorcycle" begin="0" end="3600" from="198876043#0" to="198876042#0" departPos="random_free" departSpeed="max" departLane="best" number="1"/>
  <flow id="mc689" type="motorcycle" begin="0" end="3600" from="-193253435" to="1276692369" departPos="random_free" departSpeed="max" departLane="best" number="1"/>
  <flow id="mc729" type="motorcycle" begin="0" end="3600" from="-193253435" to="1276692368" departPos="random_free" departSpeed="max" departLane="best" number="1"/>
  <flow id="mc266" type="motorcycle" begin="0" end="3600" from="1276692366" to="1276692362" departPos="random_free" departSpeed="max" departLane="best" number="1"/>
  <flow id="mc463" type="motorcycle" begin="0" end="3600" from="1276692368" to="198876045#1" departPos="random_free" departSpeed="max" departLane="best" number="1"/>