<?xml version='1.0' encoding='UTF-8'?>
<routes>
  <trip id="mc0" type="motorcycle" depart="0" from="193253433#2" to="198876043#2"/>
  <trip id="mc1" type="motorcycle" depart="1" from="1276692364" to="1276692366"/>
  <trip id="mc2" type="motorcycle" depart="2" from="1276692363" to="1276692364"/>
  <trip id="mc3" type="motorcycle" depart="3" from="198876043#0" to="1276692367"/>
  <trip id="mc4" type="motorcycle" depart="4" from="198876042#0" to="23241821#0"/>
  <trip id="mc5" type="motorcycle" depart="5" from="198876043#0" to="222682222#1"/>
  <trip id="mc6" type="motorcycle" depart="6" from="1276692363" to="34241530#0"/>
  <trip id="mc7" type="motorcycle" depart="7" from="193253433#2" to="-28231434"/>
  <trip id="mc8" type="motorcycle" depart="8" from="34241530#0" to="1276692367"/>
  <trip id="mc9" type="motorcycle" depart="9" from="308724899" to="1276692361"/>
  <trip id="mc10" type="motorcycle" depart="10" from="198876042#0" to="23241821#0"/>
  <trip id="mc11" type="motorcycle" depart="11" from="193253433#2" to="1276692366"/>
  <trip id="mc12" type="motorcycle" depart="12" from="1276692360" to="-28231434"/>
  <trip id="mc13" type="motorcycle" depart="13" from="198876043#3" to="1276692369"/>
  <trip id="mc14" type="motorcycle" depart="14" from="198876043#3" to="-193253435"/>
  <trip id="mc15" type="motorcycle" depart="15" from="193253427#0" to="198876042#0"/>
  <trip id="mc16" type="motorcycle" depart="16" from="198876042#0" to="1276692360"/>
  <trip id="mc17" type="motorcycle" depart="17" from="1276692368" to="1276692365"/>
  <trip id="mc18" type="motorcycle" depart="18" from="1276692364" to="34241530#0"/>
  <trip id="mc19" type="motorcycle" depart="19" from="198876042#0" to="308724899"/>
  <trip id="mc20" type="motorcycle" depart="20" from="1276692363" to="1276692364"/>
  <trip id="mc21" type="motorcycle" depart="21" from="1276692368" to="308724899"/>
  <trip id="mc22" type="motorcycle" depart="22" from="1276692367" to="23241821#0"/>
  <trip id="mc23" type="motorcycle" depart="23" from="193253433#2" to="-55029244#0"/>
  <trip id="mc24" type="motorcycle" depart="24" from="1276692360" to="1276692362"/>
  <trip id="mc25" type="motorcycle" depart="25" from="34241530#0" to="1276692367"/>
  <trip id="mc26" type="motorcycle" depart="26" from="1276692365" to="1276692366"/>
  <trip id="mc27" type="motorcycle" depart="27" from="-55029244#0" to="198876043#2"/>
  <trip id="mc28" type="motorcycle" depart="28" from="1276692369" to="198876043#0"/>
  <trip id="mc29" type="motorcycle" depart="29" from="-193253435" to="1276692361"/>
  <trip id="mc30" type="motorcycle" depart="30" from="198876043#0" to="1276692361"/>
  <trip id="mc31" type="motorcycle" depart="31" from="-55029244#0" to="308724899"/>
  <trip id="mc32" type="motorcycle" depart="32" from="34241530#0" to="1276692363"/>
  <trip id="mc33" type="motorcycle" depart="33" from="308724899" to="1276692364"/>
  <trip id="mc34" type="motorcycle" depart="34" from="198876043#0" to="193253427#0"/>
  <trip id="mc35" type="motorcycle" depart="35" from="23241821#0" to="308724899"/>
  <trip id="mc36" type="motorcycle" depart="36" from="1276692361" to="28231434"/>
  <trip id="mc37" type="motorcycle" depart="37" from="198876043#2" to="1276692364"/>
  <trip id="mc38" type="motorcycle" depart="38" from="1276692366" to="1276692365"/>
  <trip id="mc39" type="motorcycle" depart="39" from="28231434" to="1276692361"/>
  <trip id="mc40" type="motorcycle" depart="40" from="1276692362" to="193253433#2"/>
  <trip id="mc41" type="motorcycle" depart="41" from="1276692364" to="1276692360"/>
  <trip id="mc42" type="motorcycle" depart="42" from="198876045#1" to="1276692361"/>
  <trip id="mc43" type="motorcycle" depart="43" from="1276692364" to="1276692368"/>
  <trip id="mc44" type="motorcycle" depart="44" from="1276692369" to="1276692365"/>
  <trip id="mc45" type="motorcycle" depart="45" from="1276692363" to="222682222#1"/>
  <trip id="mc46" type="motorcycle" depart="46" from="1276692369" to="23241821#0"/>
  <trip id="mc47" type="motorcycle" depart="47" from="308724899" to="198876042#0"/>
  <trip id="mc48" type="motorcycle" depart="48" from="198876045#1" to="1276692364"/>
  <trip id="mc49" type="motorcycle" depart="49" from="1276692366" to="1276692361"/>
  <trip id="mc50" type="motorcycle" depart="50" from="-55029244#0" to="193253427#0"/>
  <trip id="mc51" type="motorcycle" depart="51" from="1276692365" to="308724899"/>
  <trip id="mc52" type="motorcycle" depart="52" from="1276692367" to="193253427#0"/>
  <trip id="mc53" type="motorcycle" depart="53" from="1276692364" to="1276692368"/>
  <trip id="mc54" type="motorcycle" depart="54" from="-55029244#0" to="1276692367"/>
  <trip id="mc55" type="motorcycle" depart="55" from="222682222#1" to="1276692361"/>
  <trip id="mc56" type="motorcycle" depart="56" from="-28231434" to="198876045#1"/>
  <trip id="mc57" type="motorcycle" depart="57" from="1276692365" to="28231434"/>
  <trip id="mc58" type="motorcycle" depart="58" from="-193253435" to="193253427#0"/>
  <trip id="mc59" type="motorcycle" depart="59" from="1276692363" to="198876042#0"/>
  <trip id="mc60" type="motorcycle" depart="60" from="1276692363" to="308724899"/>
  <trip id="mc61" type="motorcycle" depart="61" from="308724899" to="198876043#3"/>
  <trip id="mc62" type="motorcycle" depart="62" from="308724899" to="198876043#3"/>
  <trip id="mc63" type="motorcycle" depart="63" from="1276692368" to="198876043#0"/>
  <trip id="mc64" type="motorcycle" depart="64" from="1276692363" to="-193253435"/>
  <trip id="mc65" type="motorcycle" depart="65" from="1276692364" to="198876045#1"/>
  <trip id="mc66" type="motorcycle" depart="66" from="1276692367" to="1276692363"/>
  <trip id="mc67" type="motorcycle" depart="67" from="28231434" to="1276692360"/>
  <trip id="mc68" type="motorcycle" depart="68" from="198876045#1" to="198876043#0"/>
  <trip id="mc69" type="motorcycle" depart="69" from="1276692361" to="-193253435"/>
  <trip id="mc70" type="motorcycle" depart="70" from="308724899" to="28231434"/>
  <trip id="mc71" type="motorcycle" depart="71" from="1276692366" to="1276692365"/>
  <trip id="mc72" type="motorcycle" depart="72" from="1276692366" to="1276692362"/>
  <trip id="mc73" type="motorcycle" depart="73" from="23241821#0" to="34241530#0"/>
  <trip id="mc74" type="motorcycle" depart="74" from="28231434" to="1276692363"/>
  <trip id="mc75" type="motorcycle" depart="75" from="193253427#0" to="198876043#0"/>
  <trip id="mc76" type="motorcycle" depart="76" from="198876042#0" to="-55029244#0"/>
  <trip id="mc77" type="motorcycle" depart="77" from="1276692363" to="1276692365"/>
  <trip id="mc78" type="motorcycle" depart="78" from="198876042#0" to="1276692363"/>
  <trip id="mc79" type="motorcycle" depart="79" from="193253433#2" to="1276692367"/>
  <trip id="mc80" type="motorcycle" depart="80" from="198876043#3" to="-28231434"/>
  <trip id="mc81" type="motorcycle" depart="81" from="1276692369" to="1276692362"/>
  <trip id="mc82" type="motorcycle" depart="82" from="198876043#2" to="198876045#1"/>
  <trip id="mc83" type="motorcycle" depart="83" from="198876043#0" to="198876043#3"/>
  <trip id="mc84" type="motorcycle" depart="84" from="198876043#2" to="1276692364"/>
  <trip id="mc85" type="motorcycle" depart="85" from="1276692361" to="1276692366"/>
  <trip id="mc86" type="motorcycle" depart="86" from="308724899" to="1276692360"/>
  <trip id="mc87" type="motorcycle" depart="87" from="28231434" to="1276692368"/>
  <trip id="mc88" type="motorcycle" depart="88" from="198876043#0" to="1276692365"/>
  <trip id="mc89" type="motorcycle" depart="89" from="198876043#2" to="28231434"/>
  <trip id="mc90" type="motorcycle" depart="90" from="222682222#1" to="1276692360"/>
  <trip id="mc91" type="motorcycle" depart="91" from="-55029244#0" to="1276692360"/>
  <trip id="mc92" type="motorcycle" depart="92" from="1276692368" to="1276692361"/>
  <trip id="mc93" type="motorcycle" depart="93" from="1276692364" to="34241530#0"/>
  <trip id="mc94" type="motorcycle" depart="94" from="1276692367" to="193253427#0"/>
  <trip id="mc95" type="motorcycle" depart="95" from="1276692366" to="193253433#2"/>
  <trip id="mc96" type="motorcycle" depart="96" from="-193253435" to="-28231434"/>
  <trip id="mc97" type="motorcycle" depart="97" from="1276692362" to="1276692369"/>
  <trip id="mc98" type="motorcycle" depart="98" from="1276692360" to="308724899"/>
  <trip id="mc99" type="motorcycle" depart="99" from="1276692366" to="198876045#1"/>
  <trip id="mc100" type="motorcycle" depart="100" from="1276692362" to="308724899"/>
  <trip id="mc101" type="motorcycle" depart="101" from="1276692362" to="308724899"/>
  <trip id="mc102" type="motorcycle" depart="102" from="1276692360" to="1276692367"/>
  <trip id="mc103" type="motorcycle" depart="103" from="198876042#0" to="1276692366"/>
  <trip id="mc104" type="motorcycle" depart="104" from="1276692360" to="198876043#3"/>
  <trip id="mc105" type="motorcycle" depart="105" from="23241821#0" to="198876043#3"/>
  <trip id="mc106" type="motorcycle" depart="106" from="34241530#0" to="-193253435"/>
  <trip id="mc107" type="motorcycle" depart="107" from="23241821#0" to="1276692360"/>
  <trip id="mc108" type="motorcycle" depart="108" from="1276692366" to="198876043#2"/>
  <trip id="mc109" type="motorcycle" depart="109" from="1276692366" to="1276692360"/>
  <trip id="mc110" type="motorcycle" depart="110" from="34241530#0" to="198876043#3"/>
  <trip id="mc111" type="motorcycle" depart="111" from="193253433#2" to="198876042#0"/>
  <trip id="mc112" type="motorcycle" depart="112" from="1276692362" to="34241530#0"/>
  <trip id="mc113" type="motorcycle" depart="113" from="1276692360" to="198876043#2"/>
  <trip id="mc114" type="motorcycle" depart="114" from="1276692367" to="1276692360"/>
  <trip id="mc115" type="motorcycle" depart="115" from="1276692365" to="1276692369"/>
  <trip id="mc116" type="motorcycle" depart="116" from="-55029244#0" to="1276692360"/>
  <trip id="mc117" type="motorcycle" depart="117" from="1276692363" to="1276692364"/>
  <trip id="mc118" type="motorcycle" depart="118" from="1276692364" to="198876042#0"/>
  <trip id="mc119" type="motorcycle" depart="119" from="198876043#2" to="193253433#2"/>
  <trip id="mc120" type="motorcycle" depart="120" from="198876043#2" to="1276692363"/>
  <trip id="mc121" type="motorcycle" depart="121" from="198876043#2" to="1276692368"/>
  <trip id="mc122" type="motorcycle" depart="122" from="-193253435" to="1276692361"/>
  <trip id="mc123" type="motorcycle" depart="123" from="198876043#3" to="1276692366"/>
  <trip id="mc124" type="motorcycle" depart="124" from="193253427#0" to="1276692362"/>
  <trip id="mc125" type="motorcycle" depart="125" from="1276692361" to="198876043#2"/>
  <trip id="mc126" type="motorcycle" depart="126" from="28231434" to="1276692363"/>
  <trip id="mc127" type="motorcycle" depart="127" from="28231434" to="198876043#3"/>
  <trip id="mc128" type="motorcycle" depart="128" from="198876043#3" to="198876042#0"/>
  <trip id="mc129" type="motorcycle" depart="129" from="198876043#0" to="1276692363"/>
  <trip id="mc130" type="motorcycle" depart="130" from="1276692368" to="-193253435"/>
  <trip id="mc131" type="motorcycle" depart="131" from="198876042#0" to="-193253435"/>
  <trip id="mc132" type="motorcycle" depart="132" from="222682222#1" to="23241821#0"/>
  <trip id="mc133" type="motorcycle" depart="133" from="1276692368" to="193253433#2"/>
  <trip id="mc134" type="motorcycle" depart="134" from="198876042#0" to="1276692365"/>
  <trip id="mc135" type="motorcycle" depart="135" from="198876045#1" to="198876043#2"/>
  <trip id="mc136" type="motorcycle" depart="136" from="198876042#0" to="193253427#0"/>
  <trip id="mc137" type="motorcycle" depart="137" from="28231434" to="198876043#3"/>
  <trip id="mc138" type="motorcycle" depart="138" from="308724899" to="34241530#0"/>
  <trip id="mc139" type="motorcycle" depart="139" from="198876043#0" to="1276692368"/>
  <trip id="mc140" type="motorcycle" depart="140" from="1276692362" to="-55029244#0"/>
  <trip id="mc141" type="motorcycle" depart="141" from="1276692365" to="1276692367"/>
  <trip id="mc142" type="motorcycle" depart="142" from="198876043#0" to="-28231434"/>
  <trip id="mc143" type="motorcycle" depart="143" from="1276692364" to="1276692365"/>
  <trip id="mc144" type="motorcycle" depart="144" from="-55029244#0" to="23241821#0"/>
  <trip id="mc145" type="motorcycle" depart="145" from="198876043#3" to="198876042#0"/>
  <trip id="mc146" type="motorcycle" depart="146" from="-55029244#0" to="1276692364"/>
  <trip id="mc147" type="motorcycle" depart="147" from="198876043#2" to="-55029244#0"/>
  <trip id="mc148" type="motorcycle" depart="148" from="193253433#2" to="23241821#0"/>
  <trip id="mc149" type="motorcycle" depart="149" from="1276692360" to="-193253435"/>
  <trip id="mc150" type="motorcycle" depart="150" from="-55029244#0" to="198876045#1"/>
  <trip id="mc151" type="motorcycle" depart="151" from="28231434" to="1276692360"/>
  <trip id="mc152" type="motorcycle" depart="152" from="1276692360" to="308724899"/>
  <trip id="mc153" type="motorcycle" depart="153" from="1276692361" to="198876042#0"/>
  <trip id="mc154" type="motorcycle" depart="154" from="1276692369" to="198876043#3"/>
  <trip id="mc155" type="motorcycle" depart="155" from="-193253435" to="198876043#2"/>
  <trip id="mc156" type="motorcycle" depart="156" from="1276692361" to="34241530#0"/>
  <trip id="mc157" type="motorcycle" depart="157" from="1276692363" to="198876042#0"/>
  <trip id="mc158" type="motorcycle" depart="158" from="308724899" to="1276692368"/>
  <trip id="mc159" type="motorcycle" depart="159" from="1276692366" to="1276692367"/>
  <trip id="mc160" type="motorcycle" depart="160" from="198876042#0" to="23241821#0"/>
  <trip id="mc161" type="motorcycle" depart="161" from="-55029244#0" to="1276692365"/>
  <trip id="mc162" type="motorcycle" depart="162" from="1276692366" to="1276692361"/>
  <trip id="mc163" type="motorcycle" depart="163" from="1276692364" to="1276692368"/>
  <trip id="mc164" type="motorcycle" depart="164" from="28231434" to="1276692360"/>
  <trip id="mc165" type="motorcycle" depart="165" from="1276692368" to="193253427#0"/>
  <trip id="mc166" type="motorcycle" depart="166" from="198876045#1" to="1276692369"/>
  <trip id="mc167" type="motorcycle" depart="167" from="-55029244#0" to="1276692367"/>
  <trip id="mc168" type="motorcycle" depart="168" from="1276692362" to="1276692369"/>
  <trip id="mc169" type="motorcycle" depart="169" from="-193253435" to="1276692364"/>
  <trip id="mc170" type="motorcycle" depart="170" from="-28231434" to="23241821#0"/>
  <trip id="mc171" type="motorcycle" depart="171" from="193253427#0" to="34241530#0"/>
  <trip id="mc172" type="motorcycle" depart="172" from="1276692367" to="198876043#3"/>
  <trip id="mc173" type="motorcycle" depart="173" from="1276692360" to="1276692363"/>
  <trip id="mc174" type="motorcycle" depart="174" from="28231434" to="193253427#0"/>
  <trip id="mc175" type="motorcycle" depart="175" from="193253433#2" to="-193253435"/>
  <trip id="mc176" type="motorcycle" depart="176" from="28231434" to="23241821#0"/>
  <trip id="mc177" type="motorcycle" depart="177" from="1276692362" to="1276692368"/>
  <trip id="mc178" type="motorcycle" depart="178" from="1276692367" to="1276692364"/>
  <trip id="mc179" type="motorcycle" depart="179" from="-55029244#0" to="28231434"/>
  <trip id="mc180" type="motorcycle" depart="180" from="193253427#0" to="1276692369"/>
  <trip id="mc181" type="motorcycle" depart="181" from="198876043#3" to="1276692368"/>
  <trip id="mc182" type="motorcycle" depart="182" from="308724899" to="1276692369"/>
  <trip id="mc183" type="motorcycle" depart="183" from="222682222#1" to="1276692361"/>
  <trip id="mc184" type="motorcycle" depart="184" from="193253427#0" to="198876043#3"/>
  <trip id="mc185" type="motorcycle" depart="185" from="222682222#1" to="1276692364"/>
  <trip id="mc186" type="motorcycle" depart="186" from="-193253435" to="-55029244#0"/>
  <trip id="mc187" type="motorcycle" depart="187" from="193253427#0" to="1276692363"/>
  <trip id="mc188" type="motorcycle" depart="188" from="198876043#0" to="198876042#0"/>
  <trip id="mc189" type="motorcycle" depart="189" from="1276692369" to="1276692360"/>
  <trip id="mc190" type="motorcycle" depart="190" from="-193253435" to="23241821#0"/>
  <trip id="mc191" type="motorcycle" depart="191" from="193253433#2" to="1276692361"/>
  <trip id="mc192" type="motorcycle" depart="192" from="1276692363" to="198876043#2"/>
  <trip id="mc193" type="motorcycle" depart="193" from="1276692361" to="222682222#1"/>
  <trip id="mc194" type="motorcycle" depart="194" from="222682222#1" to="1276692361"/>
  <trip id="mc195" type="motorcycle" depart="195" from="1276692362" to="198876043#2"/>
  <trip id="mc196" type="motorcycle" depart="196" from="198876043#3" to="198876043#0"/>
  <trip id="mc197" type="motorcycle" depart="197" from="28231434" to="198876043#2"/>
  <trip id="mc198" type="motorcycle" depart="198" from="-55029244#0" to="1276692364"/>
  <trip id="mc199" type="motorcycle" depart="199" from="193253427#0" to="1276692360"/>
  <trip id="mc200" type="motorcycle" depart="200" from="23241821#0" to="198876042#0"/>
  <trip id="mc201" type="motorcycle" depart="201" from="198876043#0" to="1276692360"/>
  <trip id="mc202" type="motorcycle" depart="202" from="28231434" to="1276692368"/>
  <trip id="mc203" type="motorcycle" depart="203" from="23241821#0" to="1276692367"/>
  <trip id="mc204" type="motorcycle" depart="204" from="198876043#0" to="198876042#0"/>
  <trip id="mc205" type="motorcycle" depart="205" from="-28231434" to="34241530#0"/>
  <trip id="mc206" type="motorcycle" depart="206" from="1276692366" to="1276692369"/>
  <trip id="mc207" type="motorcycle" depart="207" from="1276692364" to="1276692362"/>
  <trip id="mc208" type="motorcycle" depart="208" from="193253433#2" to="1276692365"/>
  <trip id="mc209" type="motorcycle" depart="209" from="222682222#1" to="1276692362"/>
  <trip id="mc210" type="motorcycle" depart="210" from="1276692365" to="34241530#0"/>
  <trip id="mc211" type="motorcycle" depart="211" from="1276692369" to="1276692365"/>
  <trip id="mc212" type="motorcycle" depart="212" from="1276692369" to="-193253435"/>
  <trip id="mc213" type="motorcycle" depart="213" from="222682222#1" to="1276692364"/>
  <trip id="mc214" type="motorcycle" depart="214" from="1276692365" to="1276692369"/>
  <trip id="mc215" type="motorcycle" depart="215" from="1276692366" to="1276692367"/>
  <trip id="mc216" type="motorcycle" depart="216" from="1276692368" to="193253433#2"/>
  <trip id="mc217" type="motorcycle" depart="217" from="1276692367" to="1276692361"/>
  <trip id="mc218" type="motorcycle" depart="218" from="1276692368" to="1276692366"/>
  <trip id="mc219" type="motorcycle" depart="219" from="198876043#0" to="1276692364"/>
  <trip id="mc220" type="motorcycle" depart="220" from="198876042#0" to="-55029244#0"/>
  <trip id="mc221" type="motorcycle" depart="221" from="198876045#1" to="193253427#0"/>
  <trip id="mc222" type="motorcycle" depart="222" from="1276692369" to="193253433#2"/>
  <trip id="mc223" type="motorcycle" depart="223" from="193253433#2" to="-193253435"/>
  <trip id="mc224" type="motorcycle" depart="224" from="198876043#3" to="198876045#1"/>
  <trip id="mc225" type="motorcycle" depart="225" from="34241530#0" to="198876043#0"/>
  <trip id="mc226" type="motorcycle" depart="226" from="1276692361" to="1276692363"/>
  <trip id="mc227" type="motorcycle" depart="227" from="198876043#2" to="198876042#0"/>
  <trip id="mc228" type="motorcycle" depart="228" from="222682222#1" to="198876043#0"/>
  <trip id="mc229" type="motorcycle" depart="229" from="198876043#3" to="-28231434"/>
  <trip id="mc230" type="motorcycle" depart="230" from="222682222#1" to="1276692363"/>
  <trip id="mc231" type="motorcycle" depart="231" from="198876043#3" to="23241821#0"/>
  <trip id="mc232" type="motorcycle" depart="232" from="-55029244#0" to="1276692366"/>
  <trip id="mc233" type="motorcycle" depart="233" from="34241530#0" to="1276692369"/>
  <trip id="mc234" type="motorcycle" depart="234" from="1276692367" to="-55029244#0"/>
  <trip id="mc235" type="motorcycle" depart="235" from="-193253435" to="1276692368"/>
  <trip id="mc236" type="motorcycle" depart="236" from="-55029244#0" to="308724899"/>
  <trip id="mc237" type="motorcycle" depart="237" from="1276692363" to="1276692364"/>
  <trip id="mc238" type="motorcycle" depart="238" from="1276692362" to="1276692361"/>
  <trip id="mc239" type="motorcycle" depart="239" from="-55029244#0" to="23241821#0"/>
  <trip id="mc240" type="motorcycle" depart="240" from="-55029244#0" to="222682222#1"/>
  <trip id="mc241" type="motorcycle" depart="241" from="1276692369" to="1276692366"/>
  <trip id="mc242" type="motorcycle" depart="242" from="-28231434" to="1276692360"/>
  <trip id="mc243" type="motorcycle" depart="243" from="1276692362" to="198876043#2"/>
  <trip id="mc244" type="motorcycle" depart="244" from="1276692361" to="23241821#0"/>
  <trip id="mc245" type="motorcycle" depart="245" from="222682222#1" to="198876043#2"/>
  <trip id="mc246" type="motorcycle" depart="246" from="23241821#0" to="1276692361"/>
  <trip id="mc247" type="motorcycle" depart="247" from="308724899" to="198876043#3"/>
  <trip id="mc248" type="motorcycle" depart="248" from="1276692365" to="1276692363"/>
  <trip id="mc249" type="motorcycle" depart="249" from="1276692360" to="222682222#1"/>
  <trip id="mc250" type="motorcycle" depart="250" from="-193253435" to="1276692367"/>
  <trip id="mc251" type="motorcycle" depart="251" from="-193253435" to="198876043#2"/>
  <trip id="mc252" type="motorcycle" depart="252" from="1276692362" to="1276692366"/>
  <trip id="mc253" type="motorcycle" depart="253" from="-193253435" to="198876043#2"/>
  <trip id="mc254" type="motorcycle" depart="254" from="198876043#0" to="1276692363"/>
  <trip id="mc255" type="motorcycle" depart="255" from="198876045#1" to="1276692362"/>
  <trip id="mc256" type="motorcycle" depart="256" from="34241530#0" to="1276692369"/>
  <trip id="mc257" type="motorcycle" depart="257" from="198876045#1" to="222682222#1"/>
  <trip id="mc258" type="motorcycle" depart="258" from="1276692369" to="-55029244#0"/>
  <trip id="mc259" type="motorcycle" depart="259" from="1276692367" to="193253433#2"/>
  <trip id="mc260" type="motorcycle" depart="260" from="198876045#1" to="34241530#0"/>
  <trip id="mc261" type="motorcycle" depart="261" from="1276692360" to="28231434"/>
  <trip id="mc262" type="motorcycle" depart="262" from="1276692364" to="1276692365"/>
  <trip id="mc263" type="motorcycle" depart="263" from="23241821#0" to="1276692361"/>
  <trip id="mc264" type="motorcycle" depart="264" from="-193253435" to="308724899"/>
  <trip id="mc265" type="motorcycle" depart="265" from="198876043#0" to="1276692367"/>
  <trip id="mc266" type="motorcycle" depart="266" from="308724899" to="1276692369"/>
  <trip id="mc267" type="motorcycle" depart="267" from="193253427#0" to="1276692364"/>
  <trip id="mc268" type="motorcycle" depart="268" from="1276692364" to="1276692365"/>
  <trip id="mc269" type="motorcycle" depart="269" from="222682222#1" to="1276692365"/>
  <trip id="mc270" type="motorcycle" depart="270" from="198876045#1" to="1276692363"/>
  <trip id="mc271" type="motorcycle" depart="271" from="198876043#3" to="1276692360"/>
  <trip id="mc272" type="motorcycle" depart="272" from="193253427#0" to="198876042#0"/>
  <trip id="mc273" type="motorcycle" depart="273" from="1276692361" to="23241821#0"/>
  <trip id="mc274" type="motorcycle" depart="274" from="28231434" to="-193253435"/>
  <trip id="mc275" type="motorcycle" depart="275" from="23241821#0" to="198876043#3"/>
  <trip id="mc276" type="motorcycle" depart="276" from="193253427#0" to="28231434"/>
  <trip id="mc277" type="motorcycle" depart="277" from="1276692366" to="-55029244#0"/>
  <trip id="mc278" type="motorcycle" depart="278" from="1276692363" to="1276692362"/>
  <trip id="mc279" type="motorcycle" depart="279" from="1276692367" to="23241821#0"/>
  <trip id="mc280" type="motorcycle" depart="280" from="1276692369" to="1276692360"/>
  <trip id="mc281" type="motorcycle" depart="281" from="-28231434" to="193253427#0"/>
  <trip id="mc282" type="motorcycle" depart="282" from="23241821#0" to="1276692368"/>
  <trip id="mc283" type="motorcycle" depart="283" from="23241821#0" to="28231434"/>
  <trip id="mc284" type="motorcycle" depart="284" from="193253433#2" to="-28231434"/>
  <trip id="mc285" type="motorcycle" depart="285" from="23241821#0" to="28231434"/>
  <trip id="mc286" type="motorcycle" depart="286" from="-55029244#0" to="1276692362"/>
  <trip id="mc287" type="motorcycle" depart="287" from="198876043#2" to="28231434"/>
  <trip id="mc288" type="motorcycle" depart="288" from="1276692363" to="1276692369"/>
  <trip id="mc289" type="motorcycle" depart="289" from="198876043#0" to="1276692366"/>
  <trip id="mc290" type="motorcycle" depart="290" from="-28231434" to="198876043#0"/>
  <trip id="mc291" type="motorcycle" depart="291" from="198876043#0" to="28231434"/>
  <trip id="mc292" type="motorcycle" depart="292" from="198876042#0" to="1276692362"/>
  <trip id="mc293" type="motorcycle" depart="293" from="1276692360" to="1276692363"/>
  <trip id="mc294" type="motorcycle" depart="294" from="1276692363" to="-28231434"/>
  <trip id="mc295" type="motorcycle" depart="295" from="-55029244#0" to="198876042#0"/>
  <trip id="mc296" type="motorcycle" depart="296" from="308724899" to="23241821#0"/>
  <trip id="mc297" type="motorcycle" depart="297" from="198876043#2" to="-28231434"/>
  <trip id="mc298" type="motorcycle" depart="298" from="1276692367" to="198876043#2"/>
  <trip id="mc299" type="motorcycle" depart="299" from="198876042#0" to="198876043#2"/>
  <trip id="mc300" type="motorcycle" depart="300" from="1276692363" to="1276692365"/>
  <trip id="mc301" type="motorcycle" depart="301" from="1276692364" to="193253433#2"/>
  <trip id="mc302" type="motorcycle" depart="302" from="1276692364" to="1276692362"/>
  <trip id="mc303" type="motorcycle" depart="303" from="222682222#1" to="198876045#1"/>
  <trip id="mc304" type="motorcycle" depart="304" from="198876043#0" to="198876043#2"/>
  <trip id="mc305" type="motorcycle" depart="305" from="-55029244#0" to="198876045#1"/>
  <trip id="mc306" type="motorcycle" depart="306" from="23241821#0" to="1276692363"/>
  <trip id="mc307" type="motorcycle" depart="307" from="1276692364" to="1276692361"/>
  <trip id="mc308" type="motorcycle" depart="308" from="198876043#2" to="198876045#1"/>
  <trip id="mc309" type="motorcycle" depart="309" from="1276692361" to="193253433#2"/>
  <trip id="mc310" type="motorcycle" depart="310" from="-28231434" to="198876045#1"/>
  <trip id="mc311" type="motorcycle" depart="311" from="23241821#0" to="34241530#0"/>
  <trip id="mc312" type="motorcycle" depart="312" from="-193253435" to="198876045#1"/>
  <trip id="mc313" type="motorcycle" depart="313" from="193253427#0" to="198876042#0"/>
  <trip id="mc314" type="motorcycle" depart="314" from="198876045#1" to="-55029244#0"/>
  <trip id="mc315" type="motorcycle" depart="315" from="193253427#0" to="198876042#0"/>
  <trip id="mc316" type="motorcycle" depart="316" from="1276692360" to="1276692369"/>
  <trip id="mc317" type="motorcycle" depart="317" from="1276692367" to="198876043#2"/>
  <trip id="mc318" type="motorcycle" depart="318" from="1276692363" to="1276692367"/>
  <trip id="mc319" type="motorcycle" depart="319" from="-55029244#0" to="-28231434"/>
  <trip id="mc320" type="motorcycle" depart="320" from="1276692360" to="1276692365"/>
  <trip id="mc321" type="motorcycle" depart="321" from="34241530#0" to="23241821#0"/>
  <trip id="mc322" type="motorcycle" depart="322" from="1276692366" to="1276692367"/>
  <trip id="mc323" type="motorcycle" depart="323" from="198876042#0" to="198876043#0"/>
  <trip id="mc324" type="motorcycle" depart="324" from="308724899" to="1276692366"/>
  <trip id="mc325" type="motorcycle" depart="325" from="1276692363" to="1276692362"/>
  <trip id="mc326" type="motorcycle" depart="326" from="1276692369" to="1276692362"/>
  <trip id="mc327" type="motorcycle" depart="327" from="23241821#0" to="193253433#2"/>
  <trip id="mc328" type="motorcycle" depart="328" from="28231434" to="1276692362"/>
  <trip id="mc329" type="motorcycle" depart="329" from="-193253435" to="1276692366"/>
  <trip id="mc330" type="motorcycle" depart="330" from="1276692367" to="308724899"/>
  <trip id="mc331" type="motorcycle" depart="331" from="222682222#1" to="193253427#0"/>
  <trip id="mc332" type="motorcycle" depart="332" from="193253427#0" to="1276692363"/>
  <trip id="mc333" type="motorcycle" depart="333" from="222682222#1" to="34241530#0"/>
  <trip id="mc334" type="motorcycle" depart="334" from="1276692368" to="1276692369"/>
  <trip id="mc335" type="motorcycle" depart="335" from="1276692368" to="193253433#2"/>
  <trip id="mc336" type="motorcycle" depart="336" from="198876043#2" to="1276692362"/>
  <trip id="mc337" type="motorcycle" depart="337" from="198876043#2" to="1276692366"/>
  <trip id="mc338" type="motorcycle" depart="338" from="198876043#3" to="1276692366"/>
  <trip id="mc339" type="motorcycle" depart="339" from="222682222#1" to="1276692369"/>
  <trip id="mc340" type="motorcycle" depart="340" from="23241821#0" to="-28231434"/>
  <trip id="mc341" type="motorcycle" depart="341" from="1276692367" to="193253433#2"/>
  <trip id="mc342" type="motorcycle" depart="342" from="-193253435" to="1276692368"/>
  <trip id="mc343" type="motorcycle" depart="343" from="1276692366" to="1276692362"/>
  <trip id="mc344" type="motorcycle" depart="344" from="198876043#2" to="-55029244#0"/>
  <trip id="mc345" type="motorcycle" depart="345" from="198876045#1" to="222682222#1"/>
  <trip id="mc346" type="motorcycle" depart="346" from="1276692362" to="198876043#0"/>
  <trip id="mc347" type="motorcycle" depart="347" from="28231434" to="1276692361"/>
  <trip id="mc348" type="motorcycle" depart="348" from="1276692362" to="198876043#3"/>