<routes>
<vType id="car" vClass="passenger" accel="2.6" decel="4.5" sigma="0.5" length="5.0" maxSpeed="13.9"/>
<vType id="motorcycle" vClass="motorcycle" accel="3.0" decel="5.0" sigma="0.5" length="2.0" maxSpeed="14.0"/>
<vType id="truck" vClass="truck" accel="1.2" decel="3.5" sigma="0.5" length="12.0" maxSpeed="10.0"/>

  <flow id="car_222682222#1_193253427#0_00067f60" type="car" begin="0" end="3600" vehsPerHour="62.40" departLane="best" departPos="random" departSpeed="0" from="222682222#1" to="193253427#0"/>
  <flow id="car_222682222#1_198876043#0_00067f60" type="car" begin="0" end="3600" vehsPerHour="50.37" departLane="best" departPos="random" departSpeed="0" from="222682222#1" to="198876043#0"/>
  <flow id="car_222682222#1_28231434_00067f60" type="car" begin="0" end="3600" vehsPerHour="52.83" departLane="best" departPos="random" departSpeed="0" from="222682222#1" to="28231434"/>
  <flow id="car_222682222#1_23241821#0_00067f60" type="car" begin="0" end="3600" vehsPerHour="38.51" departLane="best" departPos="random" departSpeed="0" from="222682222#1" to="23241821#0"/>
  <flow id="car_222682222#1_198876042#0_00067f60" type="car" begin="0" end="3600" vehsPerHour="34.47" departLane="best" departPos="random" departSpeed="0" from="222682222#1" to="198876042#0"/>
  <flow id="motorcycle_222682222#1_193253427#0_00067f60" type="motorcycle" begin="0" end="3600" vehsPerHour="182.08" departLane="best" departPos="random" departSpeed="0" from="222682222#1" to="193253427#0"/>
  <flow id="motorcycle_222682222#1_198876043#0_00067f60" type="motorcycle" begin="0" end="3600" vehsPerHour="158.00" departLane="best" departPos="random" departSpeed="0" from="222682222#1" to="198876043#0"/>
  <flow id="motorcycle_222682222#1_28231434_00067f60" type="motorcycle" begin="0" end="3600" vehsPerHour="134.71" departLane="best" departPos="random" departSpeed="0" from="222682222#1" to="28231434"/>
  <flow id="motorcycle_222682222#1_23241821#0_00067f60" type="motorcycle" begin="0" end="3600" vehsPerHour="109.84" departLane="best" departPos="random" departSpeed="0" from="222682222#1" to="23241821#0"/>
  <flow id="motorcycle_222682222#1_198876042#0_00067f60" type="motorcycle" begin="0" end="3600" vehsPerHour="97.81" departLane="best" departPos="random" departSpeed="0" from="222682222#1" to="198876042#0"/>
  <flow id="car_193253433#2_198876043#0_00067f60" type="car" begin="0" end="3600" vehsPerHour="42.02" departLane="best" departPos="random" departSpeed="0" from="193253433#2" to="198876043#0"/>
  <flow id="car_193253433#2_28231434_00067f60" type="car" begin="0" end="3600" vehsPerHour="32.09" departLane="best" departPos="random" departSpeed="0" from="193253433#2" to="28231434"/>
  <flow id="car_193253433#2_23241821#0_00067f60" type="car" begin="0" end="3600" vehsPerHour="34.94" departLane="best" departPos="random" departSpeed="0" from="193253433#2" to="23241821#0"/>
  <flow id="car_193253433#2_198876042#0_00067f60" type="car" begin="0" end="3600" vehsPerHour="27.34" departLane="best" departPos="random" departSpeed="0" from="193253433#2" to="198876042#0"/>
  <flow id="car_193253433#2_193253427#0_00067f60" type="car" begin="0" end="3600" vehsPerHour="22.81" departLane="best" departPos="random" departSpeed="0" from="193253433#2" to="193253427#0"/>
  <flow id="motorcycle_193253433#2_198876043#0_00067f60" type="motorcycle" begin="0" end="3600" vehsPerHour="113.99" departLane="best" departPos="random" departSpeed="0" from="193253433#2" to="198876043#0"/>
  <flow id="motorcycle_193253433#2_28231434_00067f60" type="motorcycle" begin="0" end="3600" vehsPerHour="100.79" departLane="best" departPos="random" departSpeed="0" from="193253433#2" to="28231434"/>
  <flow id="motorcycle_193253433#2_23241821#0_00067f60" type="motorcycle" begin="0" end="3600" vehsPerHour="97.71" departLane="best" departPos="random" departSpeed="0" from="193253433#2" to="23241821#0"/>
  <flow id="motorcycle_193253433#2_198876042#0_00067f60" type="motorcycle" begin="0" end="3600" vehsPerHour="79.96" departLane="best" departPos="random" departSpeed="0" from="193253433#2" to="198876042#0"/>
  <flow id="motorcycle_193253433#2_193253427#0_00067f60" type="motorcycle" begin="0" end="3600" vehsPerHour="69.12" departLane="best" departPos="random" departSpeed="0" from="193253433#2" to="193253427#0"/>
  <flow id="car_198876045#1_28231434_00067f60" type="car" begin="0" end="3600" vehsPerHour="35.07" departLane="best" departPos="random" departSpeed="0" from="198876045#1" to="28231434"/>
  <flow id="car_198876045#1_23241821#0_00067f60" type="car" begin="0" end="3600" vehsPerHour="30.56" departLane="best" departPos="random" departSpeed="0" from="198876045#1" to="23241821#0"/>
  <flow id="car_198876045#1_198876042#0_00067f60" type="car" begin="0" end="3600" vehsPerHour="27.07" departLane="best" departPos="random" departSpeed="0" from="198876045#1" to="198876042#0"/>
  <flow id="car_198876045#1_193253427#0_00067f60" type="car" begin="0" end="3600" vehsPerHour="22.79" departLane="best" departPos="random" departSpeed="0" from="198876045#1" to="193253427#0"/>
  <flow id="car_198876045#1_198876043#2_00067f60" type="car" begin="0" end="3600" vehsPerHour="20.13" departLane="best" departPos="random" departSpeed="0" from="198876045#1" to="198876043#2"/>
  <flow id="motorcycle_198876045#1_28231434_00067f60" type="motorcycle" begin="0" end="3600" vehsPerHour="100.86" departLane="best" departPos="random" departSpeed="0" from="198876045#1" to="28231434"/>
  <flow id="motorcycle_198876045#1_23241821#0_00067f60" type="motorcycle" begin="0" end="3600" vehsPerHour="86.21" departLane="best" departPos="random" departSpeed="0" from="198876045#1" to="23241821#0"/>
  <flow id="motorcycle_198876045#1_198876042#0_00067f60" type="motorcycle" begin="0" end="3600" vehsPerHour="81.47" departLane="best" departPos="random" departSpeed="0" from="198876045#1" to="198876042#0"/>
  <flow id="motorcycle_198876045#1_193253427#0_00067f60" type="motorcycle" begin="0" end="3600" vehsPerHour="76.63" departLane="best" departPos="random" departSpeed="0" from="198876045#1" to="193253427#0"/>
  <flow id="motorcycle_198876045#1_198876043#2_00067f60" type="motorcycle" begin="0" end="3600" vehsPerHour="65.72" departLane="best" departPos="random" departSpeed="0" from="198876045#1" to="198876043#2"/>
  <flow id="car_-28231434_23241821#0_00067f60" type="car" begin="0" end="3600" vehsPerHour="23.51" departLane="best" departPos="random" departSpeed="0" from="-28231434" to="23241821#0"/>
  <flow id="car_-28231434_198876042#0_00067f60" type="car" begin="0" end="3600" vehsPerHour="19.70" departLane="best" departPos="random" departSpeed="0" from="-28231434" to="198876042#0"/>
  <flow id="car_-28231434_193253427#0_00067f60" type="car" begin="0" end="3600" vehsPerHour="16.67" departLane="best" departPos="random" departSpeed="0" from="-28231434" to="193253427#0"/>
  <flow id="car_-28231434_198876043#2_00067f60" type="car" begin="0" end="3600" vehsPerHour="17.19" departLane="best" departPos="random" departSpeed="0" from="-28231434" to="198876043#2"/>
  <flow id="car_-28231434_28231434_00067f60" type="car" begin="0" end="3600" vehsPerHour="13.04" departLane="best" departPos="random" departSpeed="0" from="-28231434" to="28231434"/>
  <flow id="motorcycle_-28231434_23241821#0_00067f60" type="motorcycle" begin="0" end="3600" vehsPerHour="69.80" departLane="best" departPos="random" departSpeed="0" from="-28231434" to="23241821#0"/>
  <flow id="motorcycle_-28231434_198876042#0_00067f60" type="motorcycle" begin="0" end="3600" vehsPerHour="61.67" departLane="best" departPos="random" departSpeed="0" from="-28231434" to="198876042#0"/>
  <flow id="motorcycle_-28231434_193253427#0_00067f60" type="motorcycle" begin="0" end="3600" vehsPerHour="51.76" departLane="best" departPos="random" departSpeed="0" from="-28231434" to="193253427#0"/>
  <flow id="motorcycle_-28231434_198876043#2_00067f60" type="motorcycle" begin="0" end="3600" vehsPerHour="48.98" departLane="best" departPos="random" departSpeed="0" from="-28231434" to="198876043#2"/>
  <flow id="motorcycle_-28231434_28231434_00067f60" type="motorcycle" begin="0" end="3600" vehsPerHour="39.90" departLane="best" departPos="random" departSpeed="0" from="-28231434" to="28231434"/>
  <flow id="car_-55029244#0_198876042#0_00067f60" type="car" begin="0" end="3600" vehsPerHour="27.47" departLane="best" departPos="random" departSpeed="0" from="-55029244#0" to="198876042#0"/>
  <flow id="car_-55029244#0_193253427#0_00067f60" type="car" begin="0" end="3600" vehsPerHour="22.57" departLane="best" departPos="random" departSpeed="0" from="-55029244#0" to="193253427#0"/>
  <flow id="car_-55029244#0_198876043#2_00067f60" type="car" begin="0" end="3600" vehsPerHour="21.04" departLane="best" departPos="random" departSpeed="0" from="-55029244#0" to="198876043#2"/>
  <flow id="car_-55029244#0_28231434_00067f60" type="car" begin="0" end="3600" vehsPerHour="16.19" departLane="best" departPos="random" departSpeed="0" from="-55029244#0" to="28231434"/>
  <flow id="car_-55029244#0_23241821#0_00067f60" type="car" begin="0" end="3600" vehsPerHour="12.98" departLane="best" departPos="random" departSpeed="0" from="-55029244#0" to="23241821#0"/>
  <flow id="motorcycle_-55029244#0_198876042#0_00067f60" type="motorcycle" begin="0" end="3600" vehsPerHour="80.52" departLane="best" departPos="random" departSpeed="0" from="-55029244#0" to="198876042#0"/>
  <flow id="motorcycle_-55029244#0_193253427#0_00067f60" type="motorcycle" begin="0" end="3600" vehsPerHour="67.68" departLane="best" departPos="random" departSpeed="0" from="-55029244#0" to="193253427#0"/>
  <flow id="motorcycle_-55029244#0_198876043#2_00067f60" type="motorcycle" begin="0" end="3600" vehsPerHour="59.74" departLane="best" departPos="random" departSpeed="0" from="-55029244#0" to="198876043#2"/>
  <flow id="motorcycle_-55029244#0_28231434_00067f60" type="motorcycle" begin="0" end="3600" vehsPerHour="54.77" departLane="best" departPos="random" departSpeed="0" from="-55029244#0" to="28231434"/>
  <flow id="motorcycle_-55029244#0_23241821#0_00067f60" type="motorcycle" begin="0" end="3600" vehsPerHour="46.98" departLane="best" departPos="random" departSpeed="0" from="-55029244#0" to="23241821#0"/>
  <flow id="car_34241530#0_198876042#0_00067f60" type="car" begin="0" end="3600" vehsPerHour="28.14" departLane="best" departPos="random" departSpeed="0" from="34241530#0" to="198876042#0"/>
  <flow id="car_34241530#0_193253427#0_00067f60" type="car" begin="0" end="3600" vehsPerHour="22.67" departLane="best" departPos="random" departSpeed="0" from="34241530#0" to="193253427#0"/>
  <flow id="car_34241530#0_198876043#2_00067f60" type="car" begin="0" end="3600" vehsPerHour="21.07" departLane="best" departPos="random" departSpeed="0" from="34241530#0" to="198876043#2"/>
  <flow id="car_34241530#0_28231434_00067f60" type="car" begin="0" end="3600" vehsPerHour="17.34" departLane="best" departPos="random" departSpeed="0" from="34241530#0" to="28231434"/>
  <flow id="car_34241530#0_23241821#0_00067f60" type="car" begin="0" end="3600" vehsPerHour="13.10" departLane="best" departPos="random" departSpeed="0" from="34241530#0" to="23241821#0"/>
  <flow id="motorcycle_34241530#0_198876042#0_00067f60" type="motorcycle" begin="0" end="3600" vehsPerHour="79.01" departLane="best" departPos="random" departSpeed="0" from="34241530#0" to="198876042#0"/>
  <flow id="motorcycle_34241530#0_193253427#0_00067f60" type="motorcycle" begin="0" end="3600" vehsPerHour="65.22" departLane="best" departPos="random" departSpeed="0" from="34241530#0" to="193253427#0"/>
  <flow id="motorcycle_34241530#0_198876043#2_00067f60" type="motorcycle" begin="0" end="3600" vehsPerHour="58.08" departLane="best" departPos="random" departSpeed="0" from="34241530#0" to="198876043#2"/>
  <flow id="motorcycle_34241530#0_28231434_00067f60" type="motorcycle" begin="0" end="3600" vehsPerHour="55.24" departLane="best" departPos="random" departSpeed="0" from="34241530#0" to="28231434"/>
  <flow id="motorcycle_34241530#0_23241821#0_00067f60" type="motorcycle" begin="0" end="3600" vehsPerHour="47.29" departLane="best" departPos="random" departSpeed="0" from="34241530#0" to="23241821#0"/>
  <flow id="truck_34241530#0_198876042#0_00067f60" type="truck" begin="0" end="3600" vehsPerHour="12.31" departLane="best" departPos="random" departSpeed="0" from="34241530#0" to="198876042#0"/>
</routes>
