<routes>
<vType id="car" vClass="passenger" accel="2.6" decel="4.5" sigma="0.5" length="5.0" maxSpeed="13.9"/>
<vType id="motorcycle" vClass="motorcycle" accel="3.0" decel="5.0" sigma="0.5" length="2.0" maxSpeed="14.0"/>
<vType id="truck" vClass="truck" accel="1.2" decel="3.5" sigma="0.5" length="12.0" maxSpeed="10.0"/>

  <flow id="car_222682222#1_193253427#0_000133ec" type="car" begin="0" end="3600" vehsPerHour="60.82" departLane="best" departPos="random" departSpeed="0" from="222682222#1" to="193253427#0"/>
  <flow id="car_222682222#1_198876043#0_000133ec" type="car" begin="0" end="3600" vehsPerHour="49.45" departLane="best" departPos="random" departSpeed="0" from="222682222#1" to="198876043#0"/>
  <flow id="car_222682222#1_28231434_000133ec" type="car" begin="0" end="3600" vehsPerHour="52.57" departLane="best" departPos="random" departSpeed="0" from="222682222#1" to="28231434"/>
  <flow id="car_222682222#1_23241821#0_000133ec" type="car" begin="0" end="3600" vehsPerHour="39.42" departLane="best" departPos="random" departSpeed="0" from="222682222#1" to="23241821#0"/>
  <flow id="car_222682222#1_198876042#0_000133ec" type="car" begin="0" end="3600" vehsPerHour="33.27" departLane="best" departPos="random" departSpeed="0" from="222682222#1" to="198876042#0"/>
  <flow id="motorcycle_222682222#1_193253427#0_000133ec" type="motorcycle" begin="0" end="3600" vehsPerHour="172.42" departLane="best" departPos="random" departSpeed="0" from="222682222#1" to="193253427#0"/>
  <flow id="motorcycle_222682222#1_198876043#0_000133ec" type="motorcycle" begin="0" end="3600" vehsPerHour="151.69" departLane="best" departPos="random" departSpeed="0" from="222682222#1" to="198876043#0"/>
  <flow id="motorcycle_222682222#1_28231434_000133ec" type="motorcycle" begin="0" end="3600" vehsPerHour="135.85" departLane="best" departPos="random" departSpeed="0" from="222682222#1" to="28231434"/>
  <flow id="motorcycle_222682222#1_23241821#0_000133ec" type="motorcycle" begin="0" end="3600" vehsPerHour="119.70" departLane="best" departPos="random" departSpeed="0" from="222682222#1" to="23241821#0"/>
  <flow id="motorcycle_222682222#1_198876042#0_000133ec" type="motorcycle" begin="0" end="3600" vehsPerHour="101.78" departLane="best" departPos="random" departSpeed="0" from="222682222#1" to="198876042#0"/>
  <flow id="car_193253433#2_198876043#0_000133ec" type="car" begin="0" end="3600" vehsPerHour="39.44" departLane="best" departPos="random" departSpeed="0" from="193253433#2" to="198876043#0"/>
  <flow id="car_193253433#2_28231434_000133ec" type="car" begin="0" end="3600" vehsPerHour="33.93" departLane="best" departPos="random" departSpeed="0" from="193253433#2" to="28231434"/>
  <flow id="car_193253433#2_23241821#0_000133ec" type="car" begin="0" end="3600" vehsPerHour="34.06" departLane="best" departPos="random" departSpeed="0" from="193253433#2" to="23241821#0"/>
  <flow id="car_193253433#2_198876042#0_000133ec" type="car" begin="0" end="3600" vehsPerHour="26.39" departLane="best" departPos="random" departSpeed="0" from="193253433#2" to="198876042#0"/>
  <flow id="car_193253433#2_193253427#0_000133ec" type="car" begin="0" end="3600" vehsPerHour="24.37" departLane="best" departPos="random" departSpeed="0" from="193253433#2" to="193253427#0"/>
  <flow id="motorcycle_193253433#2_198876043#0_000133ec" type="motorcycle" begin="0" end="3600" vehsPerHour="116.64" departLane="best" departPos="random" departSpeed="0" from="193253433#2" to="198876043#0"/>
  <flow id="motorcycle_193253433#2_28231434_000133ec" type="motorcycle" begin="0" end="3600" vehsPerHour="97.49" departLane="best" departPos="random" departSpeed="0" from="193253433#2" to="28231434"/>
  <flow id="motorcycle_193253433#2_23241821#0_000133ec" type="motorcycle" begin="0" end="3600" vehsPerHour="96.39" departLane="best" departPos="random" departSpeed="0" from="193253433#2" to="23241821#0"/>
  <flow id="motorcycle_193253433#2_198876042#0_000133ec" type="motorcycle" begin="0" end="3600" vehsPerHour="78.22" departLane="best" departPos="random" departSpeed="0" from="193253433#2" to="198876042#0"/>
  <flow id="motorcycle_193253433#2_193253427#0_000133ec" type="motorcycle" begin="0" end="3600" vehsPerHour="68.89" departLane="best" departPos="random" departSpeed="0" from="193253433#2" to="193253427#0"/>
  <flow id="car_198876045#1_28231434_000133ec" type="car" begin="0" end="3600" vehsPerHour="32.67" departLane="best" departPos="random" departSpeed="0" from="198876045#1" to="28231434"/>
  <flow id="car_198876045#1_23241821#0_000133ec" type="car" begin="0" end="3600" vehsPerHour="28.84" departLane="best" departPos="random" departSpeed="0" from="198876045#1" to="23241821#0"/>
  <flow id="car_198876045#1_198876042#0_000133ec" type="car" begin="0" end="3600" vehsPerHour="25.89" departLane="best" departPos="random" departSpeed="0" from="198876045#1" to="198876042#0"/>
  <flow id="car_198876045#1_193253427#0_000133ec" type="car" begin="0" end="3600" vehsPerHour="24.64" departLane="best" departPos="random" departSpeed="0" from="198876045#1" to="193253427#0"/>
  <flow id="car_198876045#1_198876043#2_000133ec" type="car" begin="0" end="3600" vehsPerHour="20.14" departLane="best" departPos="random" departSpeed="0" from="198876045#1" to="198876043#2"/>
  <flow id="motorcycle_198876045#1_28231434_000133ec" type="motorcycle" begin="0" end="3600" vehsPerHour="97.82" departLane="best" departPos="random" departSpeed="0" from="198876045#1" to="28231434"/>
  <flow id="motorcycle_198876045#1_23241821#0_000133ec" type="motorcycle" begin="0" end="3600" vehsPerHour="91.77" departLane="best" departPos="random" departSpeed="0" from="198876045#1" to="23241821#0"/>
  <flow id="motorcycle_198876045#1_198876042#0_000133ec" type="motorcycle" begin="0" end="3600" vehsPerHour="81.62" departLane="best" departPos="random" departSpeed="0" from="198876045#1" to="198876042#0"/>
  <flow id="motorcycle_198876045#1_193253427#0_000133ec" type="motorcycle" begin="0" end="3600" vehsPerHour="74.55" departLane="best" departPos="random" departSpeed="0" from="198876045#1" to="193253427#0"/>
  <flow id="motorcycle_198876045#1_198876043#2_000133ec" type="motorcycle" begin="0" end="3600" vehsPerHour="65.92" departLane="best" departPos="random" departSpeed="0" from="198876045#1" to="198876043#2"/>
  <flow id="car_-28231434_23241821#0_000133ec" type="car" begin="0" end="3600" vehsPerHour="24.27" departLane="best" departPos="random" departSpeed="0" from="-28231434" to="23241821#0"/>
  <flow id="car_-28231434_198876042#0_000133ec" type="car" begin="0" end="3600" vehsPerHour="19.29" departLane="best" departPos="random" departSpeed="0" from="-28231434" to="198876042#0"/>
  <flow id="car_-28231434_193253427#0_000133ec" type="car" begin="0" end="3600" vehsPerHour="17.56" departLane="best" departPos="random" departSpeed="0" from="-28231434" to="193253427#0"/>
  <flow id="car_-28231434_198876043#2_000133ec" type="car" begin="0" end="3600" vehsPerHour="16.90" departLane="best" departPos="random" departSpeed="0" from="-28231434" to="198876043#2"/>
  <flow id="car_-28231434_28231434_000133ec" type="car" begin="0" end="3600" vehsPerHour="13.42" departLane="best" departPos="random" departSpeed="0" from="-28231434" to="28231434"/>
  <flow id="motorcycle_-28231434_23241821#0_000133ec" type="motorcycle" begin="0" end="3600" vehsPerHour="70.18" departLane="best" departPos="random" departSpeed="0" from="-28231434" to="23241821#0"/>
  <flow id="motorcycle_-28231434_198876042#0_000133ec" type="motorcycle" begin="0" end="3600" vehsPerHour="59.59" departLane="best" departPos="random" departSpeed="0" from="-28231434" to="198876042#0"/>
  <flow id="motorcycle_-28231434_193253427#0_000133ec" type="motorcycle" begin="0" end="3600" vehsPerHour="55.07" departLane="best" departPos="random" departSpeed="0" from="-28231434" to="193253427#0"/>
  <flow id="motorcycle_-28231434_198876043#2_000133ec" type="motorcycle" begin="0" end="3600" vehsPerHour="46.12" departLane="best" departPos="random" departSpeed="0" from="-28231434" to="198876043#2"/>
  <flow id="motorcycle_-28231434_28231434_000133ec" type="motorcycle" begin="0" end="3600" vehsPerHour="38.93" departLane="best" departPos="random" departSpeed="0" from="-28231434" to="28231434"/>
  <flow id="car_-55029244#0_198876042#0_000133ec" type="car" begin="0" end="3600" vehsPerHour="28.08" departLane="best" departPos="random" departSpeed="0" from="-55029244#0" to="198876042#0"/>
  <flow id="car_-55029244#0_193253427#0_000133ec" type="car" begin="0" end="3600" vehsPerHour="23.04" departLane="best" departPos="random" departSpeed="0" from="-55029244#0" to="193253427#0"/>
  <flow id="car_-55029244#0_198876043#2_000133ec" type="car" begin="0" end="3600" vehsPerHour="19.58" departLane="best" departPos="random" departSpeed="0" from="-55029244#0" to="198876043#2"/>
  <flow id="car_-55029244#0_28231434_000133ec" type="car" begin="0" end="3600" vehsPerHour="16.67" departLane="best" departPos="random" departSpeed="0" from="-55029244#0" to="28231434"/>
  <flow id="car_-55029244#0_23241821#0_000133ec" type="car" begin="0" end="3600" vehsPerHour="13.40" departLane="best" departPos="random" departSpeed="0" from="-55029244#0" to="23241821#0"/>
  <flow id="motorcycle_-55029244#0_198876042#0_000133ec" type="motorcycle" begin="0" end="3600" vehsPerHour="84.07" departLane="best" departPos="random" departSpeed="0" from="-55029244#0" to="198876042#0"/>
  <flow id="motorcycle_-55029244#0_193253427#0_000133ec" type="motorcycle" begin="0" end="3600" vehsPerHour="67.83" departLane="best" departPos="random" departSpeed="0" from="-55029244#0" to="193253427#0"/>
  <flow id="motorcycle_-55029244#0_198876043#2_000133ec" type="motorcycle" begin="0" end="3600" vehsPerHour="59.59" departLane="best" departPos="random" departSpeed="0" from="-55029244#0" to="198876043#2"/>
  <flow id="motorcycle_-55029244#0_28231434_000133ec" type="motorcycle" begin="0" end="3600" vehsPerHour="51.34" departLane="best" departPos="random" departSpeed="0" from="-55029244#0" to="28231434"/>
  <flow id="motorcycle_-55029244#0_23241821#0_000133ec" type="motorcycle" begin="0" end="3600" vehsPerHour="46.82" departLane="best" departPos="random" departSpeed="0" from="-55029244#0" to="23241821#0"/>
  <flow id="car_34241530#0_198876042#0_000133ec" type="car" begin="0" end="3600" vehsPerHour="26.70" departLane="best" departPos="random" departSpeed="0" from="34241530#0" to="198876042#0"/>
  <flow id="car_34241530#0_193253427#0_000133ec" type="car" begin="0" end="3600" vehsPerHour="24.18" departLane="best" departPos="random" departSpeed="0" from="34241530#0" to="193253427#0"/>
  <flow id="car_34241530#0_198876043#2_000133ec" type="car" begin="0" end="3600" vehsPerHour="19.31" departLane="best" departPos="random" departSpeed="0" from="34241530#0" to="198876043#2"/>
  <flow id="car_34241530#0_28231434_000133ec" type="car" begin="0" end="3600" vehsPerHour="17.47" departLane="best" departPos="random" departSpeed="0" from="34241530#0" to="28231434"/>
  <flow id="car_34241530#0_23241821#0_000133ec" type="car" begin="0" end="3600" vehsPerHour="13.93" departLane="best" departPos="random" departSpeed="0" from="34241530#0" to="23241821#0"/>
  <flow id="motorcycle_34241530#0_198876042#0_000133ec" type="motorcycle" begin="0" end="3600" vehsPerHour="80.41" departLane="best" departPos="random" departSpeed="0" from="34241530#0" to="198876042#0"/>
  <flow id="motorcycle_34241530#0_193253427#0_000133ec" type="motorcycle" begin="0" end="3600" vehsPerHour="69.31" departLane="best" departPos="random" departSpeed="0" from="34241530#0" to="193253427#0"/>
  <flow id="motorcycle_34241530#0_198876043#2_000133ec" type="motorcycle" begin="0" end="3600" vehsPerHour="62.84" departLane="best" departPos="random" departSpeed="0" from="34241530#0" to="198876043#2"/>
  <flow id="motorcycle_34241530#0_28231434_000133ec" type="motorcycle" begin="0" end="3600" vehsPerHour="52.86" departLane="best" departPos="random" departSpeed="0" from="34241530#0" to="28231434"/>
  <flow id="motorcycle_34241530#0_23241821#0_000133ec" type="motorcycle" begin="0" end="3600" vehsPerHour="47.39" departLane="best" departPos="random" departSpeed="0" from="34241530#0" to="23241821#0"/>
  <flow id="truck_34241530#0_198876042#0_000133ec" type="truck" begin="0" end="3600" vehsPerHour="11.23" departLane="best" departPos="random" departSpeed="0" from="34241530#0" to="198876042#0"/>
</routes>
