<routes>
<vType id="car" vClass="passenger" accel="2.6" decel="4.5" sigma="0.5" length="5.0" maxSpeed="13.9"/>
<vType id="motorcycle" vClass="motorcycle" accel="3.0" decel="5.0" sigma="0.5" length="2.0" maxSpeed="14.0"/>
<vType id="truck" vClass="truck" accel="1.2" decel="3.5" sigma="0.5" length="12.0" maxSpeed="10.0"/>

  <flow id="car_222682222#1_193253427#0_000de33e" type="car" begin="0" end="3600" vehsPerHour="62.66" departLane="best" departPos="random" departSpeed="0" from="222682222#1" to="193253427#0"/>
  <flow id="car_222682222#1_198876043#0_000de33e" type="car" begin="0" end="3600" vehsPerHour="52.01" departLane="best" departPos="random" departSpeed="0" from="222682222#1" to="198876043#0"/>
  <flow id="car_222682222#1_28231434_000de33e" type="car" begin="0" end="3600" vehsPerHour="50.34" departLane="best" departPos="random" departSpeed="0" from="222682222#1" to="28231434"/>
  <flow id="car_222682222#1_23241821#0_000de33e" type="car" begin="0" end="3600" vehsPerHour="38.46" departLane="best" departPos="random" departSpeed="0" from="222682222#1" to="23241821#0"/>
  <flow id="car_222682222#1_198876042#0_000de33e" type="car" begin="0" end="3600" vehsPerHour="32.51" departLane="best" departPos="random" departSpeed="0" from="222682222#1" to="198876042#0"/>
  <flow id="motorcycle_222682222#1_193253427#0_000de33e" type="motorcycle" begin="0" end="3600" vehsPerHour="174.74" departLane="best" departPos="random" departSpeed="0" from="222682222#1" to="193253427#0"/>
  <flow id="motorcycle_222682222#1_198876043#0_000de33e" type="motorcycle" begin="0" end="3600" vehsPerHour="155.14" departLane="best" departPos="random" departSpeed="0" from="222682222#1" to="198876043#0"/>
  <flow id="motorcycle_222682222#1_28231434_000de33e" type="motorcycle" begin="0" end="3600" vehsPerHour="144.13" departLane="best" departPos="random" departSpeed="0" from="222682222#1" to="28231434"/>
  <flow id="motorcycle_222682222#1_23241821#0_000de33e" type="motorcycle" begin="0" end="3600" vehsPerHour="117.87" departLane="best" departPos="random" departSpeed="0" from="222682222#1" to="23241821#0"/>
  <flow id="motorcycle_222682222#1_198876042#0_000de33e" type="motorcycle" begin="0" end="3600" vehsPerHour="102.26" departLane="best" departPos="random" departSpeed="0" from="222682222#1" to="198876042#0"/>
  <flow id="car_193253433#2_198876043#0_000de33e" type="car" begin="0" end="3600" vehsPerHour="40.06" departLane="best" departPos="random" departSpeed="0" from="193253433#2" to="198876043#0"/>
  <flow id="car_193253433#2_28231434_000de33e" type="car" begin="0" end="3600" vehsPerHour="33.80" departLane="best" departPos="random" departSpeed="0" from="193253433#2" to="28231434"/>
  <flow id="car_193253433#2_23241821#0_000de33e" type="car" begin="0" end="3600" vehsPerHour="32.13" departLane="best" departPos="random" departSpeed="0" from="193253433#2" to="23241821#0"/>
  <flow id="car_193253433#2_198876042#0_000de33e" type="car" begin="0" end="3600" vehsPerHour="27.44" departLane="best" departPos="random" departSpeed="0" from="193253433#2" to="198876042#0"/>
  <flow id="car_193253433#2_193253427#0_000de33e" type="car" begin="0" end="3600" vehsPerHour="22.58" departLane="best" departPos="random" departSpeed="0" from="193253433#2" to="193253427#0"/>
  <flow id="motorcycle_193253433#2_198876043#0_000de33e" type="motorcycle" begin="0" end="3600" vehsPerHour="110.06" departLane="best" departPos="random" departSpeed="0" from="193253433#2" to="198876043#0"/>
  <flow id="motorcycle_193253433#2_28231434_000de33e" type="motorcycle" begin="0" end="3600" vehsPerHour="104.46" departLane="best" departPos="random" departSpeed="0" from="193253433#2" to="28231434"/>
  <flow id="motorcycle_193253433#2_23241821#0_000de33e" type="motorcycle" begin="0" end="3600" vehsPerHour="90.59" departLane="best" departPos="random" departSpeed="0" from="193253433#2" to="23241821#0"/>
  <flow id="motorcycle_193253433#2_198876042#0_000de33e" type="motorcycle" begin="0" end="3600" vehsPerHour="77.08" departLane="best" departPos="random" departSpeed="0" from="193253433#2" to="198876042#0"/>
  <flow id="motorcycle_193253433#2_193253427#0_000de33e" type="motorcycle" begin="0" end="3600" vehsPerHour="68.80" departLane="best" departPos="random" departSpeed="0" from="193253433#2" to="193253427#0"/>
  <flow id="car_198876045#1_28231434_000de33e" type="car" begin="0" end="3600" vehsPerHour="35.26" departLane="best" departPos="random" departSpeed="0" from="198876045#1" to="28231434"/>
  <flow id="car_198876045#1_23241821#0_000de33e" type="car" begin="0" end="3600" vehsPerHour="30.54" departLane="best" departPos="random" departSpeed="0" from="198876045#1" to="23241821#0"/>
  <flow id="car_198876045#1_198876042#0_000de33e" type="car" begin="0" end="3600" vehsPerHour="28.01" departLane="best" departPos="random" departSpeed="0" from="198876045#1" to="198876042#0"/>
  <flow id="car_198876045#1_193253427#0_000de33e" type="car" begin="0" end="3600" vehsPerHour="24.11" departLane="best" departPos="random" departSpeed="0" from="198876045#1" to="193253427#0"/>
  <flow id="car_198876045#1_198876043#2_000de33e" type="car" begin="0" end="3600" vehsPerHour="19.26" departLane="best" departPos="random" departSpeed="0" from="198876045#1" to="198876043#2"/>
  <flow id="motorcycle_198876045#1_28231434_000de33e" type="motorcycle" begin="0" end="3600" vehsPerHour="98.57" departLane="best" departPos="random" departSpeed="0" from="198876045#1" to="28231434"/>
  <flow id="motorcycle_198876045#1_23241821#0_000de33e" type="motorcycle" begin="0" end="3600" vehsPerHour="90.59" departLane="best" departPos="random" departSpeed="0" from="198876045#1" to="23241821#0"/>
  <flow id="motorcycle_198876045#1_198876042#0_000de33e" type="motorcycle" begin="0" end="3600" vehsPerHour="82.38" departLane="best" departPos="random" departSpeed="0" from="198876045#1" to="198876042#0"/>
  <flow id="motorcycle_198876045#1_193253427#0_000de33e" type="motorcycle" begin="0" end="3600" vehsPerHour="73.36" departLane="best" departPos="random" departSpeed="0" from="198876045#1" to="193253427#0"/>
  <flow id="motorcycle_198876045#1_198876043#2_000de33e" type="motorcycle" begin="0" end="3600" vehsPerHour="68.41" departLane="best" departPos="random" departSpeed="0" from="198876045#1" to="198876043#2"/>
  <flow id="car_-28231434_23241821#0_000de33e" type="car" begin="0" end="3600" vehsPerHour="23.89" departLane="best" departPos="random" departSpeed="0" from="-28231434" to="23241821#0"/>
  <flow id="car_-28231434_198876042#0_000de33e" type="car" begin="0" end="3600" vehsPerHour="20.26" departLane="best" departPos="random" departSpeed="0" from="-28231434" to="198876042#0"/>
  <flow id="car_-28231434_193253427#0_000de33e" type="car" begin="0" end="3600" vehsPerHour="16.97" departLane="best" departPos="random" departSpeed="0" from="-28231434" to="193253427#0"/>
  <flow id="car_-28231434_198876043#2_000de33e" type="car" begin="0" end="3600" vehsPerHour="16.79" departLane="best" departPos="random" departSpeed="0" from="-28231434" to="198876043#2"/>
  <flow id="car_-28231434_28231434_000de33e" type="car" begin="0" end="3600" vehsPerHour="13.57" departLane="best" departPos="random" departSpeed="0" from="-28231434" to="28231434"/>
  <flow id="motorcycle_-28231434_23241821#0_000de33e" type="motorcycle" begin="0" end="3600" vehsPerHour="65.26" departLane="best" departPos="random" departSpeed="0" from="-28231434" to="23241821#0"/>
  <flow id="motorcycle_-28231434_198876042#0_000de33e" type="motorcycle" begin="0" end="3600" vehsPerHour="62.02" departLane="best" departPos="random" departSpeed="0" from="-28231434" to="198876042#0"/>
  <flow id="motorcycle_-28231434_193253427#0_000de33e" type="motorcycle" begin="0" end="3600" vehsPerHour="55.93" departLane="best" departPos="random" departSpeed="0" from="-28231434" to="193253427#0"/>
  <flow id="motorcycle_-28231434_198876043#2_000de33e" type="motorcycle" begin="0" end="3600" vehsPerHour="44.88" departLane="best" departPos="random" departSpeed="0" from="-28231434" to="198876043#2"/>
  <flow id="motorcycle_-28231434_28231434_000de33e" type="motorcycle" begin="0" end="3600" vehsPerHour="41.00" departLane="best" departPos="random" departSpeed="0" from="-28231434" to="28231434"/>
  <flow id="car_-55029244#0_198876042#0_000de33e" type="car" begin="0" end="3600" vehsPerHour="27.11" departLane="best" departPos="random" departSpeed="0" from="-55029244#0" to="198876042#0"/>
  <flow id="car_-55029244#0_193253427#0_000de33e" type="car" begin="0" end="3600" vehsPerHour="22.91" departLane="best" departPos="random" departSpeed="0" from="-55029244#0" to="193253427#0"/>
  <flow id="car_-55029244#0_198876043#2_000de33e" type="car" begin="0" end="3600" vehsPerHour="19.59" departLane="best" departPos="random" departSpeed="0" from="-55029244#0" to="198876043#2"/>
  <flow id="car_-55029244#0_28231434_000de33e" type="car" begin="0" end="3600" vehsPerHour="16.19" departLane="best" departPos="random" departSpeed="0" from="-55029244#0" to="28231434"/>
  <flow id="car_-55029244#0_23241821#0_000de33e" type="car" begin="0" end="3600" vehsPerHour="13.13" departLane="best" departPos="random" departSpeed="0" from="-55029244#0" to="23241821#0"/>
  <flow id="motorcycle_-55029244#0_198876042#0_000de33e" type="motorcycle" begin="0" end="3600" vehsPerHour="84.24" departLane="best" departPos="random" departSpeed="0" from="-55029244#0" to="198876042#0"/>
  <flow id="motorcycle_-55029244#0_193253427#0_000de33e" type="motorcycle" begin="0" end="3600" vehsPerHour="64.81" departLane="best" departPos="random" departSpeed="0" from="-55029244#0" to="193253427#0"/>
  <flow id="motorcycle_-55029244#0_198876043#2_000de33e" type="motorcycle" begin="0" end="3600" vehsPerHour="57.69" departLane="best" departPos="random" departSpeed="0" from="-55029244#0" to="198876043#2"/>
  <flow id="motorcycle_-55029244#0_28231434_000de33e" type="motorcycle" begin="0" end="3600" vehsPerHour="51.64" departLane="best" departPos="random" departSpeed="0" from="-55029244#0" to="28231434"/>
  <flow id="motorcycle_-55029244#0_23241821#0_000de33e" type="motorcycle" begin="0" end="3600" vehsPerHour="48.47" departLane="best" departPos="random" departSpeed="0" from="-55029244#0" to="23241821#0"/>
  <flow id="car_34241530#0_198876042#0_000de33e" type="car" begin="0" end="3600" vehsPerHour="27.41" departLane="best" departPos="random" departSpeed="0" from="34241530#0" to="198876042#0"/>
  <flow id="car_34241530#0_193253427#0_000de33e" type="car" begin="0" end="3600" vehsPerHour="22.91" departLane="best" departPos="random" departSpeed="0" from="34241530#0" to="193253427#0"/>
  <flow id="car_34241530#0_198876043#2_000de33e" type="car" begin="0" end="3600" vehsPerHour="19.32" departLane="best" departPos="random" departSpeed="0" from="34241530#0" to="198876043#2"/>
  <flow id="car_34241530#0_28231434_000de33e" type="car" begin="0" end="3600" vehsPerHour="17.42" departLane="best" departPos="random" departSpeed="0" from="34241530#0" to="28231434"/>
  <flow id="car_34241530#0_23241821#0_000de33e" type="car" begin="0" end="3600" vehsPerHour="13.66" departLane="best" departPos="random" departSpeed="0" from="34241530#0" to="23241821#0"/>
  <flow id="motorcycle_34241530#0_198876042#0_000de33e" type="motorcycle" begin="0" end="3600" vehsPerHour="84.18" departLane="best" departPos="random" departSpeed="0" from="34241530#0" to="198876042#0"/>
  <flow id="motorcycle_34241530#0_193253427#0_000de33e" type="motorcycle" begin="0" end="3600" vehsPerHour="66.86" departLane="best" departPos="random" departSpeed="0" from="34241530#0" to="193253427#0"/>
  <flow id="motorcycle_34241530#0_198876043#2_000de33e" type="motorcycle" begin="0" end="3600" vehsPerHour="58.69" departLane="best" departPos="random" departSpeed="0" from="34241530#0" to="198876043#2"/>
  <flow id="motorcycle_34241530#0_28231434_000de33e" type="motorcycle" begin="0" end="3600" vehsPerHour="53.97" departLane="best" departPos="random" departSpeed="0" from="34241530#0" to="28231434"/>
  <flow id="motorcycle_34241530#0_23241821#0_000de33e" type="motorcycle" begin="0" end="3600" vehsPerHour="47.48" departLane="best" departPos="random" departSpeed="0" from="34241530#0" to="23241821#0"/>
  <flow id="truck_34241530#0_198876042#0_000de33e" type="truck" begin="0" end="3600" vehsPerHour="11.21" departLane="best" departPos="random" departSpeed="0" from="34241530#0" to="198876042#0"/>
</routes>
