<routes>
<vType id="car" vClass="passenger" accel="2.6" decel="4.5" sigma="0.5" length="5.0" maxSpeed="13.9"/>
<vType id="motorcycle" vClass="motorcycle" accel="3.0" decel="5.0" sigma="0.5" length="2.0" maxSpeed="14.0"/>
<vType id="truck" vClass="truck" accel="1.2" decel="3.5" sigma="0.5" length="12.0" maxSpeed="10.0"/>

  <flow id="car_222682222#1_193253427#0_000c99ff" type="car" begin="0" end="3600" vehsPerHour="61.33" departLane="best" departPos="random" departSpeed="0" from="222682222#1" to="193253427#0"/>
  <flow id="car_222682222#1_198876043#0_000c99ff" type="car" begin="0" end="3600" vehsPerHour="51.94" departLane="best" departPos="random" departSpeed="0" from="222682222#1" to="198876043#0"/>
  <flow id="car_222682222#1_28231434_000c99ff" type="car" begin="0" end="3600" vehsPerHour="48.15" departLane="best" departPos="random" departSpeed="0" from="222682222#1" to="28231434"/>
  <flow id="car_222682222#1_23241821#0_000c99ff" type="car" begin="0" end="3600" vehsPerHour="40.78" departLane="best" departPos="random" departSpeed="0" from="222682222#1" to="23241821#0"/>
  <flow id="car_222682222#1_198876042#0_000c99ff" type="car" begin="0" end="3600" vehsPerHour="33.80" departLane="best" departPos="random" departSpeed="0" from="222682222#1" to="198876042#0"/>
  <flow id="motorcycle_222682222#1_193253427#0_000c99ff" type="motorcycle" begin="0" end="3600" vehsPerHour="179.64" departLane="best" departPos="random" departSpeed="0" from="222682222#1" to="193253427#0"/>
  <flow id="motorcycle_222682222#1_198876043#0_000c99ff" type="motorcycle" begin="0" end="3600" vehsPerHour="152.71" departLane="best" departPos="random" departSpeed="0" from="222682222#1" to="198876043#0"/>
  <flow id="motorcycle_222682222#1_28231434_000c99ff" type="motorcycle" begin="0" end="3600" vehsPerHour="148.34" departLane="best" departPos="random" departSpeed="0" from="222682222#1" to="28231434"/>
  <flow id="motorcycle_222682222#1_23241821#0_000c99ff" type="motorcycle" begin="0" end="3600" vehsPerHour="114.66" departLane="best" departPos="random" departSpeed="0" from="222682222#1" to="23241821#0"/>
  <flow id="motorcycle_222682222#1_198876042#0_000c99ff" type="motorcycle" begin="0" end="3600" vehsPerHour="104.26" departLane="best" departPos="random" departSpeed="0" from="222682222#1" to="198876042#0"/>
  <flow id="car_193253433#2_198876043#0_000c99ff" type="car" begin="0" end="3600" vehsPerHour="41.87" departLane="best" departPos="random" departSpeed="0" from="193253433#2" to="198876043#0"/>
  <flow id="car_193253433#2_28231434_000c99ff" type="car" begin="0" end="3600" vehsPerHour="32.95" departLane="best" departPos="random" departSpeed="0" from="193253433#2" to="28231434"/>
  <flow id="car_193253433#2_23241821#0_000c99ff" type="car" begin="0" end="3600" vehsPerHour="33.87" departLane="best" departPos="random" departSpeed="0" from="193253433#2" to="23241821#0"/>
  <flow id="car_193253433#2_198876042#0_000c99ff" type="car" begin="0" end="3600" vehsPerHour="25.84" departLane="best" departPos="random" departSpeed="0" from="193253433#2" to="198876042#0"/>
  <flow id="car_193253433#2_193253427#0_000c99ff" type="car" begin="0" end="3600" vehsPerHour="23.10" departLane="best" departPos="random" departSpeed="0" from="193253433#2" to="193253427#0"/>
  <flow id="motorcycle_193253433#2_198876043#0_000c99ff" type="motorcycle" begin="0" end="3600" vehsPerHour="111.64" departLane="best" departPos="random" departSpeed="0" from="193253433#2" to="198876043#0"/>
  <flow id="motorcycle_193253433#2_28231434_000c99ff" type="motorcycle" begin="0" end="3600" vehsPerHour="103.02" departLane="best" departPos="random" departSpeed="0" from="193253433#2" to="28231434"/>
  <flow id="motorcycle_193253433#2_23241821#0_000c99ff" type="motorcycle" begin="0" end="3600" vehsPerHour="92.39" departLane="best" departPos="random" departSpeed="0" from="193253433#2" to="23241821#0"/>
  <flow id="motorcycle_193253433#2_198876042#0_000c99ff" type="motorcycle" begin="0" end="3600" vehsPerHour="82.50" departLane="best" departPos="random" departSpeed="0" from="193253433#2" to="198876042#0"/>
  <flow id="motorcycle_193253433#2_193253427#0_000c99ff" type="motorcycle" begin="0" end="3600" vehsPerHour="69.45" departLane="best" departPos="random" departSpeed="0" from="193253433#2" to="193253427#0"/>
  <flow id="car_198876045#1_28231434_000c99ff" type="car" begin="0" end="3600" vehsPerHour="33.54" departLane="best" departPos="random" departSpeed="0" from="198876045#1" to="28231434"/>
  <flow id="car_198876045#1_23241821#0_000c99ff" type="car" begin="0" end="3600" vehsPerHour="31.09" departLane="best" departPos="random" departSpeed="0" from="198876045#1" to="23241821#0"/>
  <flow id="car_198876045#1_198876042#0_000c99ff" type="car" begin="0" end="3600" vehsPerHour="25.68" departLane="best" departPos="random" departSpeed="0" from="198876045#1" to="198876042#0"/>
  <flow id="car_198876045#1_193253427#0_000c99ff" type="car" begin="0" end="3600" vehsPerHour="22.45" departLane="best" departPos="random" departSpeed="0" from="198876045#1" to="193253427#0"/>
  <flow id="car_198876045#1_198876043#2_000c99ff" type="car" begin="0" end="3600" vehsPerHour="20.41" departLane="best" departPos="random" departSpeed="0" from="198876045#1" to="198876043#2"/>
  <flow id="motorcycle_198876045#1_28231434_000c99ff" type="motorcycle" begin="0" end="3600" vehsPerHour="105.86" departLane="best" departPos="random" departSpeed="0" from="198876045#1" to="28231434"/>
  <flow id="motorcycle_198876045#1_23241821#0_000c99ff" type="motorcycle" begin="0" end="3600" vehsPerHour="83.34" departLane="best" departPos="random" departSpeed="0" from="198876045#1" to="23241821#0"/>
  <flow id="motorcycle_198876045#1_198876042#0_000c99ff" type="motorcycle" begin="0" end="3600" vehsPerHour="78.26" departLane="best" departPos="random" departSpeed="0" from="198876045#1" to="198876042#0"/>
  <flow id="motorcycle_198876045#1_193253427#0_000c99ff" type="motorcycle" begin="0" end="3600" vehsPerHour="71.89" departLane="best" departPos="random" departSpeed="0" from="198876045#1" to="193253427#0"/>
  <flow id="motorcycle_198876045#1_198876043#2_000c99ff" type="motorcycle" begin="0" end="3600" vehsPerHour="70.50" departLane="best" departPos="random" departSpeed="0" from="198876045#1" to="198876043#2"/>
  <flow id="car_-28231434_23241821#0_000c99ff" type="car" begin="0" end="3600" vehsPerHour="23.63" departLane="best" departPos="random" departSpeed="0" from="-28231434" to="23241821#0"/>
  <flow id="car_-28231434_198876042#0_000c99ff" type="car" begin="0" end="3600" vehsPerHour="19.71" departLane="best" departPos="random" departSpeed="0" from="-28231434" to="198876042#0"/>
  <flow id="car_-28231434_193253427#0_000c99ff" type="car" begin="0" end="3600" vehsPerHour="17.00" departLane="best" departPos="random" departSpeed="0" from="-28231434" to="193253427#0"/>
  <flow id="car_-28231434_198876043#2_000c99ff" type="car" begin="0" end="3600" vehsPerHour="16.22" departLane="best" departPos="random" departSpeed="0" from="-28231434" to="198876043#2"/>
  <flow id="car_-28231434_28231434_000c99ff" type="car" begin="0" end="3600" vehsPerHour="13.87" departLane="best" departPos="random" departSpeed="0" from="-28231434" to="28231434"/>
  <flow id="motorcycle_-28231434_23241821#0_000c99ff" type="motorcycle" begin="0" end="3600" vehsPerHour="67.88" departLane="best" departPos="random" departSpeed="0" from="-28231434" to="23241821#0"/>
  <flow id="motorcycle_-28231434_198876042#0_000c99ff" type="motorcycle" begin="0" end="3600" vehsPerHour="60.77" departLane="best" departPos="random" departSpeed="0" from="-28231434" to="198876042#0"/>
  <flow id="motorcycle_-28231434_193253427#0_000c99ff" type="motorcycle" begin="0" end="3600" vehsPerHour="56.28" departLane="best" departPos="random" departSpeed="0" from="-28231434" to="193253427#0"/>
  <flow id="motorcycle_-28231434_198876043#2_000c99ff" type="motorcycle" begin="0" end="3600" vehsPerHour="49.00" departLane="best" departPos="random" departSpeed="0" from="-28231434" to="198876043#2"/>
  <flow id="motorcycle_-28231434_28231434_000c99ff" type="motorcycle" begin="0" end="3600" vehsPerHour="38.43" departLane="best" departPos="random" departSpeed="0" from="-28231434" to="28231434"/>
  <flow id="car_-55029244#0_198876042#0_000c99ff" type="car" begin="0" end="3600" vehsPerHour="27.72" departLane="best" departPos="random" departSpeed="0" from="-55029244#0" to="198876042#0"/>
  <flow id="car_-55029244#0_193253427#0_000c99ff" type="car" begin="0" end="3600" vehsPerHour="23.50" departLane="best" departPos="random" departSpeed="0" from="-55029244#0" to="193253427#0"/>
  <flow id="car_-55029244#0_198876043#2_000c99ff" type="car" begin="0" end="3600" vehsPerHour="19.23" departLane="best" departPos="random" departSpeed="0" from="-55029244#0" to="198876043#2"/>
  <flow id="car_-55029244#0_28231434_000c99ff" type="car" begin="0" end="3600" vehsPerHour="16.16" departLane="best" departPos="random" departSpeed="0" from="-55029244#0" to="28231434"/>
  <flow id="car_-55029244#0_23241821#0_000c99ff" type="car" begin="0" end="3600" vehsPerHour="12.86" departLane="best" departPos="random" departSpeed="0" from="-55029244#0" to="23241821#0"/>
  <flow id="motorcycle_-55029244#0_198876042#0_000c99ff" type="motorcycle" begin="0" end="3600" vehsPerHour="79.15" departLane="best" departPos="random" departSpeed="0" from="-55029244#0" to="198876042#0"/>
  <flow id="motorcycle_-55029244#0_193253427#0_000c99ff" type="motorcycle" begin="0" end="3600" vehsPerHour="68.60" departLane="best" departPos="random" departSpeed="0" from="-55029244#0" to="193253427#0"/>
  <flow id="motorcycle_-55029244#0_198876043#2_000c99ff" type="motorcycle" begin="0" end="3600" vehsPerHour="62.50" departLane="best" departPos="random" departSpeed="0" from="-55029244#0" to="198876043#2"/>
  <flow id="motorcycle_-55029244#0_28231434_000c99ff" type="motorcycle" begin="0" end="3600" vehsPerHour="52.24" departLane="best" departPos="random" departSpeed="0" from="-55029244#0" to="28231434"/>
  <flow id="motorcycle_-55029244#0_23241821#0_000c99ff" type="motorcycle" begin="0" end="3600" vehsPerHour="46.71" departLane="best" departPos="random" departSpeed="0" from="-55029244#0" to="23241821#0"/>
  <flow id="car_34241530#0_198876042#0_000c99ff" type="car" begin="0" end="3600" vehsPerHour="26.69" departLane="best" departPos="random" departSpeed="0" from="34241530#0" to="198876042#0"/>
  <flow id="car_34241530#0_193253427#0_000c99ff" type="car" begin="0" end="3600" vehsPerHour="24.04" departLane="best" departPos="random" departSpeed="0" from="34241530#0" to="193253427#0"/>
  <flow id="car_34241530#0_198876043#2_000c99ff" type="car" begin="0" end="3600" vehsPerHour="19.87" departLane="best" departPos="random" departSpeed="0" from="34241530#0" to="198876043#2"/>
  <flow id="car_34241530#0_28231434_000c99ff" type="car" begin="0" end="3600" vehsPerHour="16.26" departLane="best" departPos="random" departSpeed="0" from="34241530#0" to="28231434"/>
  <flow id="car_34241530#0_23241821#0_000c99ff" type="car" begin="0" end="3600" vehsPerHour="13.27" departLane="best" departPos="random" departSpeed="0" from="34241530#0" to="23241821#0"/>
  <flow id="motorcycle_34241530#0_198876042#0_000c99ff" type="motorcycle" begin="0" end="3600" vehsPerHour="83.16" departLane="best" departPos="random" departSpeed="0" from="34241530#0" to="198876042#0"/>
  <flow id="motorcycle_34241530#0_193253427#0_000c99ff" type="motorcycle" begin="0" end="3600" vehsPerHour="70.41" departLane="best" departPos="random" departSpeed="0" from="34241530#0" to="193253427#0"/>
  <flow id="motorcycle_34241530#0_198876043#2_000c99ff" type="motorcycle" begin="0" end="3600" vehsPerHour="57.79" departLane="best" departPos="random" departSpeed="0" from="34241530#0" to="198876043#2"/>
  <flow id="motorcycle_34241530#0_28231434_000c99ff" type="motorcycle" begin="0" end="3600" vehsPerHour="54.05" departLane="best" departPos="random" departSpeed="0" from="34241530#0" to="28231434"/>
  <flow id="motorcycle_34241530#0_23241821#0_000c99ff" type="motorcycle" begin="0" end="3600" vehsPerHour="46.05" departLane="best" departPos="random" departSpeed="0" from="34241530#0" to="23241821#0"/>
  <flow id="truck_34241530#0_198876042#0_000c99ff" type="truck" begin="0" end="3600" vehsPerHour="11.70" departLane="best" departPos="random" departSpeed="0" from="34241530#0" to="198876042#0"/>
</routes>
