<routes>
<vType id="car" vClass="passenger" accel="2.6" decel="4.5" sigma="0.5" length="5.0" maxSpeed="13.9"/>
<vType id="motorcycle" vClass="motorcycle" accel="3.0" decel="5.0" sigma="0.5" length="2.0" maxSpeed="14.0"/>
<vType id="truck" vClass="truck" accel="1.2" decel="3.5" sigma="0.5" length="12.0" maxSpeed="10.0"/>

  <flow id="car_222682222#1_193253427#0_000d3398" type="car" begin="0" end="3600" vehsPerHour="58.87" departLane="best" departPos="random" departSpeed="0" from="222682222#1" to="193253427#0"/>
  <flow id="car_222682222#1_198876043#0_000d3398" type="car" begin="0" end="3600" vehsPerHour="51.92" departLane="best" departPos="random" departSpeed="0" from="222682222#1" to="198876043#0"/>
  <flow id="car_222682222#1_28231434_000d3398" type="car" begin="0" end="3600" vehsPerHour="52.86" departLane="best" departPos="random" departSpeed="0" from="222682222#1" to="28231434"/>
  <flow id="car_222682222#1_23241821#0_000d3398" type="car" begin="0" end="3600" vehsPerHour="41.83" departLane="best" departPos="random" departSpeed="0" from="222682222#1" to="23241821#0"/>
  <flow id="car_222682222#1_198876042#0_000d3398" type="car" begin="0" end="3600" vehsPerHour="34.03" departLane="best" departPos="random" departSpeed="0" from="222682222#1" to="198876042#0"/>
  <flow id="motorcycle_222682222#1_193253427#0_000d3398" type="motorcycle" begin="0" end="3600" vehsPerHour="170.40" departLane="best" departPos="random" departSpeed="0" from="222682222#1" to="193253427#0"/>
  <flow id="motorcycle_222682222#1_198876043#0_000d3398" type="motorcycle" begin="0" end="3600" vehsPerHour="159.64" departLane="best" departPos="random" departSpeed="0" from="222682222#1" to="198876043#0"/>
  <flow id="motorcycle_222682222#1_28231434_000d3398" type="motorcycle" begin="0" end="3600" vehsPerHour="139.63" departLane="best" departPos="random" departSpeed="0" from="222682222#1" to="28231434"/>
  <flow id="motorcycle_222682222#1_23241821#0_000d3398" type="motorcycle" begin="0" end="3600" vehsPerHour="109.51" departLane="best" departPos="random" departSpeed="0" from="222682222#1" to="23241821#0"/>
  <flow id="motorcycle_222682222#1_198876042#0_000d3398" type="motorcycle" begin="0" end="3600" vehsPerHour="98.17" departLane="best" departPos="random" departSpeed="0" from="222682222#1" to="198876042#0"/>
  <flow id="car_193253433#2_198876043#0_000d3398" type="car" begin="0" end="3600" vehsPerHour="40.32" departLane="best" departPos="random" departSpeed="0" from="193253433#2" to="198876043#0"/>
  <flow id="car_193253433#2_28231434_000d3398" type="car" begin="0" end="3600" vehsPerHour="33.51" departLane="best" departPos="random" departSpeed="0" from="193253433#2" to="28231434"/>
  <flow id="car_193253433#2_23241821#0_000d3398" type="car" begin="0" end="3600" vehsPerHour="34.32" departLane="best" departPos="random" departSpeed="0" from="193253433#2" to="23241821#0"/>
  <flow id="car_193253433#2_198876042#0_000d3398" type="car" begin="0" end="3600" vehsPerHour="26.12" departLane="best" departPos="random" departSpeed="0" from="193253433#2" to="198876042#0"/>
  <flow id="car_193253433#2_193253427#0_000d3398" type="car" begin="0" end="3600" vehsPerHour="23.49" departLane="best" departPos="random" departSpeed="0" from="193253433#2" to="193253427#0"/>
  <flow id="motorcycle_193253433#2_198876043#0_000d3398" type="motorcycle" begin="0" end="3600" vehsPerHour="114.38" departLane="best" departPos="random" departSpeed="0" from="193253433#2" to="198876043#0"/>
  <flow id="motorcycle_193253433#2_28231434_000d3398" type="motorcycle" begin="0" end="3600" vehsPerHour="100.41" departLane="best" departPos="random" departSpeed="0" from="193253433#2" to="28231434"/>
  <flow id="motorcycle_193253433#2_23241821#0_000d3398" type="motorcycle" begin="0" end="3600" vehsPerHour="93.48" departLane="best" departPos="random" departSpeed="0" from="193253433#2" to="23241821#0"/>
  <flow id="motorcycle_193253433#2_198876042#0_000d3398" type="motorcycle" begin="0" end="3600" vehsPerHour="78.03" departLane="best" departPos="random" departSpeed="0" from="193253433#2" to="198876042#0"/>
  <flow id="motorcycle_193253433#2_193253427#0_000d3398" type="motorcycle" begin="0" end="3600" vehsPerHour="66.28" departLane="best" departPos="random" departSpeed="0" from="193253433#2" to="193253427#0"/>
  <flow id="car_198876045#1_28231434_000d3398" type="car" begin="0" end="3600" vehsPerHour="34.78" departLane="best" departPos="random" departSpeed="0" from="198876045#1" to="28231434"/>
  <flow id="car_198876045#1_23241821#0_000d3398" type="car" begin="0" end="3600" vehsPerHour="29.14" departLane="best" departPos="random" departSpeed="0" from="198876045#1" to="23241821#0"/>
  <flow id="car_198876045#1_198876042#0_000d3398" type="car" begin="0" end="3600" vehsPerHour="26.44" departLane="best" departPos="random" departSpeed="0" from="198876045#1" to="198876042#0"/>
  <flow id="car_198876045#1_193253427#0_000d3398" type="car" begin="0" end="3600" vehsPerHour="23.29" departLane="best" departPos="random" departSpeed="0" from="198876045#1" to="193253427#0"/>
  <flow id="car_198876045#1_198876043#2_000d3398" type="car" begin="0" end="3600" vehsPerHour="20.44" departLane="best" departPos="random" departSpeed="0" from="198876045#1" to="198876043#2"/>
  <flow id="motorcycle_198876045#1_28231434_000d3398" type="motorcycle" begin="0" end="3600" vehsPerHour="100.53" departLane="best" departPos="random" departSpeed="0" from="198876045#1" to="28231434"/>
  <flow id="motorcycle_198876045#1_23241821#0_000d3398" type="motorcycle" begin="0" end="3600" vehsPerHour="83.74" departLane="best" departPos="random" departSpeed="0" from="198876045#1" to="23241821#0"/>
  <flow id="motorcycle_198876045#1_198876042#0_000d3398" type="motorcycle" begin="0" end="3600" vehsPerHour="79.86" departLane="best" departPos="random" departSpeed="0" from="198876045#1" to="198876042#0"/>
  <flow id="motorcycle_198876045#1_193253427#0_000d3398" type="motorcycle" begin="0" end="3600" vehsPerHour="72.92" departLane="best" departPos="random" departSpeed="0" from="198876045#1" to="193253427#0"/>
  <flow id="motorcycle_198876045#1_198876043#2_000d3398" type="motorcycle" begin="0" end="3600" vehsPerHour="65.29" departLane="best" departPos="random" departSpeed="0" from="198876045#1" to="198876043#2"/>
  <flow id="car_-28231434_23241821#0_000d3398" type="car" begin="0" end="3600" vehsPerHour="24.61" departLane="best" departPos="random" departSpeed="0" from="-28231434" to="23241821#0"/>
  <flow id="car_-28231434_198876042#0_000d3398" type="car" begin="0" end="3600" vehsPerHour="20.33" departLane="best" departPos="random" departSpeed="0" from="-28231434" to="198876042#0"/>
  <flow id="car_-28231434_193253427#0_000d3398" type="car" begin="0" end="3600" vehsPerHour="16.08" departLane="best" departPos="random" departSpeed="0" from="-28231434" to="193253427#0"/>
  <flow id="car_-28231434_198876043#2_000d3398" type="car" begin="0" end="3600" vehsPerHour="17.40" departLane="best" departPos="random" departSpeed="0" from="-28231434" to="198876043#2"/>
  <flow id="car_-28231434_28231434_000d3398" type="car" begin="0" end="3600" vehsPerHour="13.20" departLane="best" departPos="random" departSpeed="0" from="-28231434" to="28231434"/>
  <flow id="motorcycle_-28231434_23241821#0_000d3398" type="motorcycle" begin="0" end="3600" vehsPerHour="70.08" departLane="best" departPos="random" departSpeed="0" from="-28231434" to="23241821#0"/>
  <flow id="motorcycle_-28231434_198876042#0_000d3398" type="motorcycle" begin="0" end="3600" vehsPerHour="61.85" departLane="best" departPos="random" departSpeed="0" from="-28231434" to="198876042#0"/>
  <flow id="motorcycle_-28231434_193253427#0_000d3398" type="motorcycle" begin="0" end="3600" vehsPerHour="51.66" departLane="best" departPos="random" departSpeed="0" from="-28231434" to="193253427#0"/>
  <flow id="motorcycle_-28231434_198876043#2_000d3398" type="motorcycle" begin="0" end="3600" vehsPerHour="48.05" departLane="best" departPos="random" departSpeed="0" from="-28231434" to="198876043#2"/>
  <flow id="motorcycle_-28231434_28231434_000d3398" type="motorcycle" begin="0" end="3600" vehsPerHour="38.52" departLane="best" departPos="random" departSpeed="0" from="-28231434" to="28231434"/>
  <flow id="car_-55029244#0_198876042#0_000d3398" type="car" begin="0" end="3600" vehsPerHour="26.00" departLane="best" departPos="random" departSpeed="0" from="-55029244#0" to="198876042#0"/>
  <flow id="car_-55029244#0_193253427#0_000d3398" type="car" begin="0" end="3600" vehsPerHour="23.73" departLane="best" departPos="random" departSpeed="0" from="-55029244#0" to="193253427#0"/>
  <flow id="car_-55029244#0_198876043#2_000d3398" type="car" begin="0" end="3600" vehsPerHour="19.99" departLane="best" departPos="random" departSpeed="0" from="-55029244#0" to="198876043#2"/>
  <flow id="car_-55029244#0_28231434_000d3398" type="car" begin="0" end="3600" vehsPerHour="16.46" departLane="best" departPos="random" departSpeed="0" from="-55029244#0" to="28231434"/>
  <flow id="car_-55029244#0_23241821#0_000d3398" type="car" begin="0" end="3600" vehsPerHour="13.62" departLane="best" departPos="random" departSpeed="0" from="-55029244#0" to="23241821#0"/>
  <flow id="motorcycle_-55029244#0_198876042#0_000d3398" type="motorcycle" begin="0" end="3600" vehsPerHour="83.30" departLane="best" departPos="random" departSpeed="0" from="-55029244#0" to="198876042#0"/>
  <flow id="motorcycle_-55029244#0_193253427#0_000d3398" type="motorcycle" begin="0" end="3600" vehsPerHour="67.56" departLane="best" departPos="random" departSpeed="0" from="-55029244#0" to="193253427#0"/>
  <flow id="motorcycle_-55029244#0_198876043#2_000d3398" type="motorcycle" begin="0" end="3600" vehsPerHour="59.04" departLane="best" departPos="random" departSpeed="0" from="-55029244#0" to="198876043#2"/>
  <flow id="motorcycle_-55029244#0_28231434_000d3398" type="motorcycle" begin="0" end="3600" vehsPerHour="55.38" departLane="best" departPos="random" departSpeed="0" from="-55029244#0" to="28231434"/>
  <flow id="motorcycle_-55029244#0_23241821#0_000d3398" type="motorcycle" begin="0" end="3600" vehsPerHour="48.66" departLane="best" departPos="random" departSpeed="0" from="-55029244#0" to="23241821#0"/>
  <flow id="car_34241530#0_198876042#0_000d3398" type="car" begin="0" end="3600" vehsPerHour="25.62" departLane="best" departPos="random" departSpeed="0" from="34241530#0" to="198876042#0"/>
  <flow id="car_34241530#0_193253427#0_000d3398" type="car" begin="0" end="3600" vehsPerHour="23.32" departLane="best" departPos="random" departSpeed="0" from="34241530#0" to="193253427#0"/>
  <flow id="car_34241530#0_198876043#2_000d3398" type="car" begin="0" end="3600" vehsPerHour="19.94" departLane="best" departPos="random" departSpeed="0" from="34241530#0" to="198876043#2"/>
  <flow id="car_34241530#0_28231434_000d3398" type="car" begin="0" end="3600" vehsPerHour="16.05" departLane="best" departPos="random" departSpeed="0" from="34241530#0" to="28231434"/>
  <flow id="car_34241530#0_23241821#0_000d3398" type="car" begin="0" end="3600" vehsPerHour="14.02" departLane="best" departPos="random" departSpeed="0" from="34241530#0" to="23241821#0"/>
  <flow id="motorcycle_34241530#0_198876042#0_000d3398" type="motorcycle" begin="0" end="3600" vehsPerHour="79.40" departLane="best" departPos="random" departSpeed="0" from="34241530#0" to="198876042#0"/>
  <flow id="motorcycle_34241530#0_193253427#0_000d3398" type="motorcycle" begin="0" end="3600" vehsPerHour="64.93" departLane="best" departPos="random" departSpeed="0" from="34241530#0" to="193253427#0"/>
  <flow id="motorcycle_34241530#0_198876043#2_000d3398" type="motorcycle" begin="0" end="3600" vehsPerHour="61.89" departLane="best" departPos="random" departSpeed="0" from="34241530#0" to="198876043#2"/>
  <flow id="motorcycle_34241530#0_28231434_000d3398" type="motorcycle" begin="0" end="3600" vehsPerHour="54.69" departLane="best" departPos="random" departSpeed="0" from="34241530#0" to="28231434"/>
  <flow id="motorcycle_34241530#0_23241821#0_000d3398" type="motorcycle" begin="0" end="3600" vehsPerHour="47.76" departLane="best" departPos="random" departSpeed="0" from="34241530#0" to="23241821#0"/>
  <flow id="truck_34241530#0_198876042#0_000d3398" type="truck" begin="0" end="3600" vehsPerHour="11.40" departLane="best" departPos="random" departSpeed="0" from="34241530#0" to="198876042#0"/>
</routes>
