<routes>
<vType id="car" vClass="passenger" accel="2.6" decel="4.5" sigma="0.5" length="5.0" maxSpeed="13.9"/>
<vType id="motorcycle" vClass="motorcycle" accel="3.0" decel="5.0" sigma="0.5" length="2.0" maxSpeed="14.0"/>
<vType id="truck" vClass="truck" accel="1.2" decel="3.5" sigma="0.5" length="12.0" maxSpeed="10.0"/>

  <flow id="car_222682222#1_193253427#0_00098f69" type="car" begin="0" end="3600" vehsPerHour="62.06" departLane="best" departPos="random" departSpeed="0" from="222682222#1" to="193253427#0"/>
  <flow id="car_222682222#1_198876043#0_00098f69" type="car" begin="0" end="3600" vehsPerHour="49.20" departLane="best" departPos="random" departSpeed="0" from="222682222#1" to="198876043#0"/>
  <flow id="car_222682222#1_28231434_00098f69" type="car" begin="0" end="3600" vehsPerHour="52.09" departLane="best" departPos="random" departSpeed="0" from="222682222#1" to="28231434"/>
  <flow id="car_222682222#1_23241821#0_00098f69" type="car" begin="0" end="3600" vehsPerHour="40.56" departLane="best" departPos="random" departSpeed="0" from="222682222#1" to="23241821#0"/>
  <flow id="car_222682222#1_198876042#0_00098f69" type="car" begin="0" end="3600" vehsPerHour="35.05" departLane="best" departPos="random" departSpeed="0" from="222682222#1" to="198876042#0"/>
  <flow id="motorcycle_222682222#1_193253427#0_00098f69" type="motorcycle" begin="0" end="3600" vehsPerHour="174.58" departLane="best" departPos="random" departSpeed="0" from="222682222#1" to="193253427#0"/>
  <flow id="motorcycle_222682222#1_198876043#0_00098f69" type="motorcycle" begin="0" end="3600" vehsPerHour="149.65" departLane="best" departPos="random" departSpeed="0" from="222682222#1" to="198876043#0"/>
  <flow id="motorcycle_222682222#1_28231434_00098f69" type="motorcycle" begin="0" end="3600" vehsPerHour="140.55" departLane="best" departPos="random" departSpeed="0" from="222682222#1" to="28231434"/>
  <flow id="motorcycle_222682222#1_23241821#0_00098f69" type="motorcycle" begin="0" end="3600" vehsPerHour="117.88" departLane="best" departPos="random" departSpeed="0" from="222682222#1" to="23241821#0"/>
  <flow id="motorcycle_222682222#1_198876042#0_00098f69" type="motorcycle" begin="0" end="3600" vehsPerHour="98.60" departLane="best" departPos="random" departSpeed="0" from="222682222#1" to="198876042#0"/>
  <flow id="car_193253433#2_198876043#0_00098f69" type="car" begin="0" end="3600" vehsPerHour="41.10" departLane="best" departPos="random" departSpeed="0" from="193253433#2" to="198876043#0"/>
  <flow id="car_193253433#2_28231434_00098f69" type="car" begin="0" end="3600" vehsPerHour="33.27" departLane="best" departPos="random" departSpeed="0" from="193253433#2" to="28231434"/>
  <flow id="car_193253433#2_23241821#0_00098f69" type="car" begin="0" end="3600" vehsPerHour="32.41" departLane="best" departPos="random" departSpeed="0" from="193253433#2" to="23241821#0"/>
  <flow id="car_193253433#2_198876042#0_00098f69" type="car" begin="0" end="3600" vehsPerHour="25.99" departLane="best" departPos="random" departSpeed="0" from="193253433#2" to="198876042#0"/>
  <flow id="car_193253433#2_193253427#0_00098f69" type="car" begin="0" end="3600" vehsPerHour="24.18" departLane="best" departPos="random" departSpeed="0" from="193253433#2" to="193253427#0"/>
  <flow id="motorcycle_193253433#2_198876043#0_00098f69" type="motorcycle" begin="0" end="3600" vehsPerHour="110.83" departLane="best" departPos="random" departSpeed="0" from="193253433#2" to="198876043#0"/>
  <flow id="motorcycle_193253433#2_28231434_00098f69" type="motorcycle" begin="0" end="3600" vehsPerHour="98.32" departLane="best" departPos="random" departSpeed="0" from="193253433#2" to="28231434"/>
  <flow id="motorcycle_193253433#2_23241821#0_00098f69" type="motorcycle" begin="0" end="3600" vehsPerHour="98.17" departLane="best" departPos="random" departSpeed="0" from="193253433#2" to="23241821#0"/>
  <flow id="motorcycle_193253433#2_198876042#0_00098f69" type="motorcycle" begin="0" end="3600" vehsPerHour="84.02" departLane="best" departPos="random" departSpeed="0" from="193253433#2" to="198876042#0"/>
  <flow id="motorcycle_193253433#2_193253427#0_00098f69" type="motorcycle" begin="0" end="3600" vehsPerHour="67.22" departLane="best" departPos="random" departSpeed="0" from="193253433#2" to="193253427#0"/>
  <flow id="car_198876045#1_28231434_00098f69" type="car" begin="0" end="3600" vehsPerHour="33.26" departLane="best" departPos="random" departSpeed="0" from="198876045#1" to="28231434"/>
  <flow id="car_198876045#1_23241821#0_00098f69" type="car" begin="0" end="3600" vehsPerHour="29.17" departLane="best" departPos="random" departSpeed="0" from="198876045#1" to="23241821#0"/>
  <flow id="car_198876045#1_198876042#0_00098f69" type="car" begin="0" end="3600" vehsPerHour="26.92" departLane="best" departPos="random" departSpeed="0" from="198876045#1" to="198876042#0"/>
  <flow id="car_198876045#1_193253427#0_00098f69" type="car" begin="0" end="3600" vehsPerHour="24.18" departLane="best" departPos="random" departSpeed="0" from="198876045#1" to="193253427#0"/>
  <flow id="car_198876045#1_198876043#2_00098f69" type="car" begin="0" end="3600" vehsPerHour="19.24" departLane="best" departPos="random" departSpeed="0" from="198876045#1" to="198876043#2"/>
  <flow id="motorcycle_198876045#1_28231434_00098f69" type="motorcycle" begin="0" end="3600" vehsPerHour="102.29" departLane="best" departPos="random" departSpeed="0" from="198876045#1" to="28231434"/>
  <flow id="motorcycle_198876045#1_23241821#0_00098f69" type="motorcycle" begin="0" end="3600" vehsPerHour="84.23" departLane="best" departPos="random" departSpeed="0" from="198876045#1" to="23241821#0"/>
  <flow id="motorcycle_198876045#1_198876042#0_00098f69" type="motorcycle" begin="0" end="3600" vehsPerHour="84.73" departLane="best" departPos="random" departSpeed="0" from="198876045#1" to="198876042#0"/>
  <flow id="motorcycle_198876045#1_193253427#0_00098f69" type="motorcycle" begin="0" end="3600" vehsPerHour="73.44" departLane="best" departPos="random" departSpeed="0" from="198876045#1" to="193253427#0"/>
  <flow id="motorcycle_198876045#1_198876043#2_00098f69" type="motorcycle" begin="0" end="3600" vehsPerHour="65.10" departLane="best" departPos="random" departSpeed="0" from="198876045#1" to="198876043#2"/>
  <flow id="car_-28231434_23241821#0_00098f69" type="car" begin="0" end="3600" vehsPerHour="23.87" departLane="best" departPos="random" departSpeed="0" from="-28231434" to="23241821#0"/>
  <flow id="car_-28231434_198876042#0_00098f69" type="car" begin="0" end="3600" vehsPerHour="21.05" departLane="best" departPos="random" departSpeed="0" from="-28231434" to="198876042#0"/>
  <flow id="car_-28231434_193253427#0_00098f69" type="car" begin="0" end="3600" vehsPerHour="17.58" departLane="best" departPos="random" departSpeed="0" from="-28231434" to="193253427#0"/>
  <flow id="car_-28231434_198876043#2_00098f69" type="car" begin="0" end="3600" vehsPerHour="16.14" departLane="best" departPos="random" departSpeed="0" from="-28231434" to="198876043#2"/>
  <flow id="car_-28231434_28231434_00098f69" type="car" begin="0" end="3600" vehsPerHour="13.41" departLane="best" departPos="random" departSpeed="0" from="-28231434" to="28231434"/>
  <flow id="motorcycle_-28231434_23241821#0_00098f69" type="motorcycle" begin="0" end="3600" vehsPerHour="70.04" departLane="best" departPos="random" departSpeed="0" from="-28231434" to="23241821#0"/>
  <flow id="motorcycle_-28231434_198876042#0_00098f69" type="motorcycle" begin="0" end="3600" vehsPerHour="63.43" departLane="best" departPos="random" departSpeed="0" from="-28231434" to="198876042#0"/>
  <flow id="motorcycle_-28231434_193253427#0_00098f69" type="motorcycle" begin="0" end="3600" vehsPerHour="55.02" departLane="best" departPos="random" departSpeed="0" from="-28231434" to="193253427#0"/>
  <flow id="motorcycle_-28231434_198876043#2_00098f69" type="motorcycle" begin="0" end="3600" vehsPerHour="45.50" departLane="best" departPos="random" departSpeed="0" from="-28231434" to="198876043#2"/>
  <flow id="motorcycle_-28231434_28231434_00098f69" type="motorcycle" begin="0" end="3600" vehsPerHour="40.97" departLane="best" departPos="random" departSpeed="0" from="-28231434" to="28231434"/>
  <flow id="car_-55029244#0_198876042#0_00098f69" type="car" begin="0" end="3600" vehsPerHour="27.48" departLane="best" departPos="random" departSpeed="0" from="-55029244#0" to="198876042#0"/>
  <flow id="car_-55029244#0_193253427#0_00098f69" type="car" begin="0" end="3600" vehsPerHour="23.33" departLane="best" departPos="random" departSpeed="0" from="-55029244#0" to="193253427#0"/>
  <flow id="car_-55029244#0_198876043#2_00098f69" type="car" begin="0" end="3600" vehsPerHour="19.33" departLane="best" departPos="random" departSpeed="0" from="-55029244#0" to="198876043#2"/>
  <flow id="car_-55029244#0_28231434_00098f69" type="car" begin="0" end="3600" vehsPerHour="16.51" departLane="best" departPos="random" departSpeed="0" from="-55029244#0" to="28231434"/>
  <flow id="car_-55029244#0_23241821#0_00098f69" type="car" begin="0" end="3600" vehsPerHour="13.33" departLane="best" departPos="random" departSpeed="0" from="-55029244#0" to="23241821#0"/>
  <flow id="motorcycle_-55029244#0_198876042#0_00098f69" type="motorcycle" begin="0" end="3600" vehsPerHour="82.69" departLane="best" departPos="random" departSpeed="0" from="-55029244#0" to="198876042#0"/>
  <flow id="motorcycle_-55029244#0_193253427#0_00098f69" type="motorcycle" begin="0" end="3600" vehsPerHour="66.58" departLane="best" departPos="random" departSpeed="0" from="-55029244#0" to="193253427#0"/>
  <flow id="motorcycle_-55029244#0_198876043#2_00098f69" type="motorcycle" begin="0" end="3600" vehsPerHour="61.89" departLane="best" departPos="random" departSpeed="0" from="-55029244#0" to="198876043#2"/>
  <flow id="motorcycle_-55029244#0_28231434_00098f69" type="motorcycle" begin="0" end="3600" vehsPerHour="55.15" departLane="best" departPos="random" departSpeed="0" from="-55029244#0" to="28231434"/>
  <flow id="motorcycle_-55029244#0_23241821#0_00098f69" type="motorcycle" begin="0" end="3600" vehsPerHour="48.13" departLane="best" departPos="random" departSpeed="0" from="-55029244#0" to="23241821#0"/>
  <flow id="car_34241530#0_198876042#0_00098f69" type="car" begin="0" end="3600" vehsPerHour="28.14" departLane="best" departPos="random" departSpeed="0" from="34241530#0" to="198876042#0"/>
  <flow id="car_34241530#0_193253427#0_00098f69" type="car" begin="0" end="3600" vehsPerHour="23.18" departLane="best" departPos="random" departSpeed="0" from="34241530#0" to="193253427#0"/>
  <flow id="car_34241530#0_198876043#2_00098f69" type="car" begin="0" end="3600" vehsPerHour="21.17" departLane="best" departPos="random" departSpeed="0" from="34241530#0" to="198876043#2"/>
  <flow id="car_34241530#0_28231434_00098f69" type="car" begin="0" end="3600" vehsPerHour="17.36" departLane="best" departPos="random" departSpeed="0" from="34241530#0" to="28231434"/>
  <flow id="car_34241530#0_23241821#0_00098f69" type="car" begin="0" end="3600" vehsPerHour="13.71" departLane="best" departPos="random" departSpeed="0" from="34241530#0" to="23241821#0"/>
  <flow id="motorcycle_34241530#0_198876042#0_00098f69" type="motorcycle" begin="0" end="3600" vehsPerHour="80.13" departLane="best" departPos="random" departSpeed="0" from="34241530#0" to="198876042#0"/>
  <flow id="motorcycle_34241530#0_193253427#0_00098f69" type="motorcycle" begin="0" end="3600" vehsPerHour="68.80" departLane="best" departPos="random" departSpeed="0" from="34241530#0" to="193253427#0"/>
  <flow id="motorcycle_34241530#0_198876043#2_00098f69" type="motorcycle" begin="0" end="3600" vehsPerHour="62.08" departLane="best" departPos="random" departSpeed="0" from="34241530#0" to="198876043#2"/>
  <flow id="motorcycle_34241530#0_28231434_00098f69" type="motorcycle" begin="0" end="3600" vehsPerHour="52.50" departLane="best" departPos="random" departSpeed="0" from="34241530#0" to="28231434"/>
  <flow id="motorcycle_34241530#0_23241821#0_00098f69" type="motorcycle" begin="0" end="3600" vehsPerHour="47.81" departLane="best" departPos="random" departSpeed="0" from="34241530#0" to="23241821#0"/>
  <flow id="truck_34241530#0_198876042#0_00098f69" type="truck" begin="0" end="3600" vehsPerHour="11.74" departLane="best" departPos="random" departSpeed="0" from="34241530#0" to="198876042#0"/>
</routes>
