<routes>
<vType id="car" vClass="passenger" accel="2.6" decel="4.5" sigma="0.5" length="5.0" maxSpeed="13.9"/>
<vType id="motorcycle" vClass="motorcycle" accel="3.0" decel="5.0" sigma="0.5" length="2.0" maxSpeed="14.0"/>
<vType id="truck" vClass="truck" accel="1.2" decel="3.5" sigma="0.5" length="12.0" maxSpeed="10.0"/>

  <flow id="car_222682222#1_193253427#0_000c744c" type="car" begin="0" end="3600" vehsPerHour="62.17" departLane="best" departPos="random" departSpeed="0" from="222682222#1" to="193253427#0"/>
  <flow id="car_222682222#1_198876043#0_000c744c" type="car" begin="0" end="3600" vehsPerHour="50.19" departLane="best" departPos="random" departSpeed="0" from="222682222#1" to="198876043#0"/>
  <flow id="car_222682222#1_28231434_000c744c" type="car" begin="0" end="3600" vehsPerHour="50.68" departLane="best" departPos="random" departSpeed="0" from="222682222#1" to="28231434"/>
  <flow id="car_222682222#1_23241821#0_000c744c" type="car" begin="0" end="3600" vehsPerHour="39.14" departLane="best" departPos="random" departSpeed="0" from="222682222#1" to="23241821#0"/>
  <flow id="car_222682222#1_198876042#0_000c744c" type="car" begin="0" end="3600" vehsPerHour="35.27" departLane="best" departPos="random" departSpeed="0" from="222682222#1" to="198876042#0"/>
  <flow id="motorcycle_222682222#1_193253427#0_000c744c" type="motorcycle" begin="0" end="3600" vehsPerHour="174.68" departLane="best" departPos="random" departSpeed="0" from="222682222#1" to="193253427#0"/>
  <flow id="motorcycle_222682222#1_198876043#0_000c744c" type="motorcycle" begin="0" end="3600" vehsPerHour="162.73" departLane="best" departPos="random" departSpeed="0" from="222682222#1" to="198876043#0"/>
  <flow id="motorcycle_222682222#1_28231434_000c744c" type="motorcycle" begin="0" end="3600" vehsPerHour="146.63" departLane="best" departPos="random" departSpeed="0" from="222682222#1" to="28231434"/>
  <flow id="motorcycle_222682222#1_23241821#0_000c744c" type="motorcycle" begin="0" end="3600" vehsPerHour="118.55" departLane="best" departPos="random" departSpeed="0" from="222682222#1" to="23241821#0"/>
  <flow id="motorcycle_222682222#1_198876042#0_000c744c" type="motorcycle" begin="0" end="3600" vehsPerHour="104.72" departLane="best" departPos="random" departSpeed="0" from="222682222#1" to="198876042#0"/>
  <flow id="car_193253433#2_198876043#0_000c744c" type="car" begin="0" end="3600" vehsPerHour="41.56" departLane="best" departPos="random" departSpeed="0" from="193253433#2" to="198876043#0"/>
  <flow id="car_193253433#2_28231434_000c744c" type="car" begin="0" end="3600" vehsPerHour="33.38" departLane="best" departPos="random" departSpeed="0" from="193253433#2" to="28231434"/>
  <flow id="car_193253433#2_23241821#0_000c744c" type="car" begin="0" end="3600" vehsPerHour="33.37" departLane="best" departPos="random" departSpeed="0" from="193253433#2" to="23241821#0"/>
  <flow id="car_193253433#2_198876042#0_000c744c" type="car" begin="0" end="3600" vehsPerHour="26.94" departLane="best" departPos="random" departSpeed="0" from="193253433#2" to="198876042#0"/>
  <flow id="car_193253433#2_193253427#0_000c744c" type="car" begin="0" end="3600" vehsPerHour="23.60" departLane="best" departPos="random" departSpeed="0" from="193253433#2" to="193253427#0"/>
  <flow id="motorcycle_193253433#2_198876043#0_000c744c" type="motorcycle" begin="0" end="3600" vehsPerHour="116.91" departLane="best" departPos="random" departSpeed="0" from="193253433#2" to="198876043#0"/>
  <flow id="motorcycle_193253433#2_28231434_000c744c" type="motorcycle" begin="0" end="3600" vehsPerHour="99.32" departLane="best" departPos="random" departSpeed="0" from="193253433#2" to="28231434"/>
  <flow id="motorcycle_193253433#2_23241821#0_000c744c" type="motorcycle" begin="0" end="3600" vehsPerHour="96.72" departLane="best" departPos="random" departSpeed="0" from="193253433#2" to="23241821#0"/>
  <flow id="motorcycle_193253433#2_198876042#0_000c744c" type="motorcycle" begin="0" end="3600" vehsPerHour="78.57" departLane="best" departPos="random" departSpeed="0" from="193253433#2" to="198876042#0"/>
  <flow id="motorcycle_193253433#2_193253427#0_000c744c" type="motorcycle" begin="0" end="3600" vehsPerHour="69.24" departLane="best" departPos="random" departSpeed="0" from="193253433#2" to="193253427#0"/>
  <flow id="car_198876045#1_28231434_000c744c" type="car" begin="0" end="3600" vehsPerHour="34.78" departLane="best" departPos="random" departSpeed="0" from="198876045#1" to="28231434"/>
  <flow id="car_198876045#1_23241821#0_000c744c" type="car" begin="0" end="3600" vehsPerHour="30.94" departLane="best" departPos="random" departSpeed="0" from="198876045#1" to="23241821#0"/>
  <flow id="car_198876045#1_198876042#0_000c744c" type="car" begin="0" end="3600" vehsPerHour="28.02" departLane="best" departPos="random" departSpeed="0" from="198876045#1" to="198876042#0"/>
  <flow id="car_198876045#1_193253427#0_000c744c" type="car" begin="0" end="3600" vehsPerHour="24.56" departLane="best" departPos="random" departSpeed="0" from="198876045#1" to="193253427#0"/>
  <flow id="car_198876045#1_198876043#2_000c744c" type="car" begin="0" end="3600" vehsPerHour="21.15" departLane="best" departPos="random" departSpeed="0" from="198876045#1" to="198876043#2"/>
  <flow id="motorcycle_198876045#1_28231434_000c744c" type="motorcycle" begin="0" end="3600" vehsPerHour="102.15" departLane="best" departPos="random" departSpeed="0" from="198876045#1" to="28231434"/>
  <flow id="motorcycle_198876045#1_23241821#0_000c744c" type="motorcycle" begin="0" end="3600" vehsPerHour="87.44" departLane="best" departPos="random" departSpeed="0" from="198876045#1" to="23241821#0"/>
  <flow id="motorcycle_198876045#1_198876042#0_000c744c" type="motorcycle" begin="0" end="3600" vehsPerHour="82.72" departLane="best" departPos="random" departSpeed="0" from="198876045#1" to="198876042#0"/>
  <flow id="motorcycle_198876045#1_193253427#0_000c744c" type="motorcycle" begin="0" end="3600" vehsPerHour="76.34" departLane="best" departPos="random" departSpeed="0" from="198876045#1" to="193253427#0"/>
  <flow id="motorcycle_198876045#1_198876043#2_000c744c" type="motorcycle" begin="0" end="3600" vehsPerHour="67.76" departLane="best" departPos="random" departSpeed="0" from="198876045#1" to="198876043#2"/>
  <flow id="car_-28231434_23241821#0_000c744c" type="car" begin="0" end="3600" vehsPerHour="24.65" departLane="best" departPos="random" departSpeed="0" from="-28231434" to="23241821#0"/>
  <flow id="car_-28231434_198876042#0_000c744c" type="car" begin="0" end="3600" vehsPerHour="20.92" departLane="best" departPos="random" departSpeed="0" from="-28231434" to="198876042#0"/>
  <flow id="car_-28231434_193253427#0_000c744c" type="car" begin="0" end="3600" vehsPerHour="17.56" departLane="best" departPos="random" departSpeed="0" from="-28231434" to="193253427#0"/>
  <flow id="car_-28231434_198876043#2_000c744c" type="car" begin="0" end="3600" vehsPerHour="17.30" departLane="best" departPos="random" departSpeed="0" from="-28231434" to="198876043#2"/>
  <flow id="car_-28231434_28231434_000c744c" type="car" begin="0" end="3600" vehsPerHour="14.04" departLane="best" departPos="random" departSpeed="0" from="-28231434" to="28231434"/>
  <flow id="motorcycle_-28231434_23241821#0_000c744c" type="motorcycle" begin="0" end="3600" vehsPerHour="64.65" departLane="best" departPos="random" departSpeed="0" from="-28231434" to="23241821#0"/>
  <flow id="motorcycle_-28231434_198876042#0_000c744c" type="motorcycle" begin="0" end="3600" vehsPerHour="58.79" departLane="best" departPos="random" departSpeed="0" from="-28231434" to="198876042#0"/>
  <flow id="motorcycle_-28231434_193253427#0_000c744c" type="motorcycle" begin="0" end="3600" vehsPerHour="51.79" departLane="best" departPos="random" departSpeed="0" from="-28231434" to="193253427#0"/>
  <flow id="motorcycle_-28231434_198876043#2_000c744c" type="motorcycle" begin="0" end="3600" vehsPerHour="49.00" departLane="best" departPos="random" departSpeed="0" from="-28231434" to="198876043#2"/>
  <flow id="motorcycle_-28231434_28231434_000c744c" type="motorcycle" begin="0" end="3600" vehsPerHour="38.82" departLane="best" departPos="random" departSpeed="0" from="-28231434" to="28231434"/>
  <flow id="car_-55029244#0_198876042#0_000c744c" type="car" begin="0" end="3600" vehsPerHour="28.01" departLane="best" departPos="random" departSpeed="0" from="-55029244#0" to="198876042#0"/>
  <flow id="car_-55029244#0_193253427#0_000c744c" type="car" begin="0" end="3600" vehsPerHour="23.13" departLane="best" departPos="random" departSpeed="0" from="-55029244#0" to="193253427#0"/>
  <flow id="car_-55029244#0_198876043#2_000c744c" type="car" begin="0" end="3600" vehsPerHour="20.93" departLane="best" departPos="random" departSpeed="0" from="-55029244#0" to="198876043#2"/>
  <flow id="car_-55029244#0_28231434_000c744c" type="car" begin="0" end="3600" vehsPerHour="17.18" departLane="best" departPos="random" departSpeed="0" from="-55029244#0" to="28231434"/>
  <flow id="car_-55029244#0_23241821#0_000c744c" type="car" begin="0" end="3600" vehsPerHour="13.02" departLane="best" departPos="random" departSpeed="0" from="-55029244#0" to="23241821#0"/>
  <flow id="motorcycle_-55029244#0_198876042#0_000c744c" type="motorcycle" begin="0" end="3600" vehsPerHour="84.40" departLane="best" departPos="random" departSpeed="0" from="-55029244#0" to="198876042#0"/>
  <flow id="motorcycle_-55029244#0_193253427#0_000c744c" type="motorcycle" begin="0" end="3600" vehsPerHour="67.39" departLane="best" departPos="random" departSpeed="0" from="-55029244#0" to="193253427#0"/>
  <flow id="motorcycle_-55029244#0_198876043#2_000c744c" type="motorcycle" begin="0" end="3600" vehsPerHour="60.95" departLane="best" departPos="random" departSpeed="0" from="-55029244#0" to="198876043#2"/>
  <flow id="motorcycle_-55029244#0_28231434_000c744c" type="motorcycle" begin="0" end="3600" vehsPerHour="55.00" departLane="best" departPos="random" departSpeed="0" from="-55029244#0" to="28231434"/>
  <flow id="motorcycle_-55029244#0_23241821#0_000c744c" type="motorcycle" begin="0" end="3600" vehsPerHour="46.47" departLane="best" departPos="random" departSpeed="0" from="-55029244#0" to="23241821#0"/>
  <flow id="car_34241530#0_198876042#0_000c744c" type="car" begin="0" end="3600" vehsPerHour="26.51" departLane="best" departPos="random" departSpeed="0" from="34241530#0" to="198876042#0"/>
  <flow id="car_34241530#0_193253427#0_000c744c" type="car" begin="0" end="3600" vehsPerHour="23.95" departLane="best" departPos="random" departSpeed="0" from="34241530#0" to="193253427#0"/>
  <flow id="car_34241530#0_198876043#2_000c744c" type="car" begin="0" end="3600" vehsPerHour="20.69" departLane="best" departPos="random" departSpeed="0" from="34241530#0" to="198876043#2"/>
  <flow id="car_34241530#0_28231434_000c744c" type="car" begin="0" end="3600" vehsPerHour="16.40" departLane="best" departPos="random" departSpeed="0" from="34241530#0" to="28231434"/>
  <flow id="car_34241530#0_23241821#0_000c744c" type="car" begin="0" end="3600" vehsPerHour="13.76" departLane="best" departPos="random" departSpeed="0" from="34241530#0" to="23241821#0"/>
  <flow id="motorcycle_34241530#0_198876042#0_000c744c" type="motorcycle" begin="0" end="3600" vehsPerHour="84.29" departLane="best" departPos="random" departSpeed="0" from="34241530#0" to="198876042#0"/>
  <flow id="motorcycle_34241530#0_193253427#0_000c744c" type="motorcycle" begin="0" end="3600" vehsPerHour="68.80" departLane="best" departPos="random" departSpeed="0" from="34241530#0" to="193253427#0"/>
  <flow id="motorcycle_34241530#0_198876043#2_000c744c" type="motorcycle" begin="0" end="3600" vehsPerHour="58.59" departLane="best" departPos="random" departSpeed="0" from="34241530#0" to="198876043#2"/>
  <flow id="motorcycle_34241530#0_28231434_000c744c" type="motorcycle" begin="0" end="3600" vehsPerHour="56.10" departLane="best" departPos="random" departSpeed="0" from="34241530#0" to="28231434"/>
  <flow id="motorcycle_34241530#0_23241821#0_000c744c" type="motorcycle" begin="0" end="3600" vehsPerHour="47.23" departLane="best" departPos="random" departSpeed="0" from="34241530#0" to="23241821#0"/>
  <flow id="truck_34241530#0_198876042#0_000c744c" type="truck" begin="0" end="3600" vehsPerHour="12.34" departLane="best" departPos="random" departSpeed="0" from="34241530#0" to="198876042#0"/>
</routes>
