<routes>
<vType id="car" vClass="passenger" accel="2.6" decel="4.5" sigma="0.5" length="5.0" maxSpeed="13.9"/>
<vType id="motorcycle" vClass="motorcycle" accel="3.0" decel="5.0" sigma="0.5" length="2.0" maxSpeed="14.0"/>
<vType id="truck" vClass="truck" accel="1.2" decel="3.5" sigma="0.5" length="12.0" maxSpeed="10.0"/>

  <flow id="car_222682222#1_193253427#0_00082bee" type="car" begin="0" end="3600" vehsPerHour="57.90" departLane="best" departPos="random" departSpeed="0" from="222682222#1" to="193253427#0"/>
  <flow id="car_222682222#1_198876043#0_00082bee" type="car" begin="0" end="3600" vehsPerHour="51.60" departLane="best" departPos="random" departSpeed="0" from="222682222#1" to="198876043#0"/>
  <flow id="car_222682222#1_28231434_00082bee" type="car" begin="0" end="3600" vehsPerHour="52.95" departLane="best" departPos="random" departSpeed="0" from="222682222#1" to="28231434"/>
  <flow id="car_222682222#1_23241821#0_00082bee" type="car" begin="0" end="3600" vehsPerHour="40.95" departLane="best" departPos="random" departSpeed="0" from="222682222#1" to="23241821#0"/>
  <flow id="car_222682222#1_198876042#0_00082bee" type="car" begin="0" end="3600" vehsPerHour="34.00" departLane="best" departPos="random" departSpeed="0" from="222682222#1" to="198876042#0"/>
  <flow id="motorcycle_222682222#1_193253427#0_00082bee" type="motorcycle" begin="0" end="3600" vehsPerHour="174.29" departLane="best" departPos="random" departSpeed="0" from="222682222#1" to="193253427#0"/>
  <flow id="motorcycle_222682222#1_198876043#0_00082bee" type="motorcycle" begin="0" end="3600" vehsPerHour="157.72" departLane="best" departPos="random" departSpeed="0" from="222682222#1" to="198876043#0"/>
  <flow id="motorcycle_222682222#1_28231434_00082bee" type="motorcycle" begin="0" end="3600" vehsPerHour="140.32" departLane="best" departPos="random" departSpeed="0" from="222682222#1" to="28231434"/>
  <flow id="motorcycle_222682222#1_23241821#0_00082bee" type="motorcycle" begin="0" end="3600" vehsPerHour="112.13" departLane="best" departPos="random" departSpeed="0" from="222682222#1" to="23241821#0"/>
  <flow id="motorcycle_222682222#1_198876042#0_00082bee" type="motorcycle" begin="0" end="3600" vehsPerHour="102.69" departLane="best" departPos="random" departSpeed="0" from="222682222#1" to="198876042#0"/>
  <flow id="car_193253433#2_198876043#0_00082bee" type="car" begin="0" end="3600" vehsPerHour="41.96" departLane="best" departPos="random" departSpeed="0" from="193253433#2" to="198876043#0"/>
  <flow id="car_193253433#2_28231434_00082bee" type="car" begin="0" end="3600" vehsPerHour="33.68" departLane="best" departPos="random" departSpeed="0" from="193253433#2" to="28231434"/>
  <flow id="car_193253433#2_23241821#0_00082bee" type="car" begin="0" end="3600" vehsPerHour="33.69" departLane="best" departPos="random" departSpeed="0" from="193253433#2" to="23241821#0"/>
  <flow id="car_193253433#2_198876042#0_00082bee" type="car" begin="0" end="3600" vehsPerHour="27.17" departLane="best" departPos="random" departSpeed="0" from="193253433#2" to="198876042#0"/>
  <flow id="car_193253433#2_193253427#0_00082bee" type="car" begin="0" end="3600" vehsPerHour="24.66" departLane="best" departPos="random" departSpeed="0" from="193253433#2" to="193253427#0"/>
  <flow id="motorcycle_193253433#2_198876043#0_00082bee" type="motorcycle" begin="0" end="3600" vehsPerHour="115.43" departLane="best" departPos="random" departSpeed="0" from="193253433#2" to="198876043#0"/>
  <flow id="motorcycle_193253433#2_28231434_00082bee" type="motorcycle" begin="0" end="3600" vehsPerHour="97.59" departLane="best" departPos="random" departSpeed="0" from="193253433#2" to="28231434"/>
  <flow id="motorcycle_193253433#2_23241821#0_00082bee" type="motorcycle" begin="0" end="3600" vehsPerHour="97.61" departLane="best" departPos="random" departSpeed="0" from="193253433#2" to="23241821#0"/>
  <flow id="motorcycle_193253433#2_198876042#0_00082bee" type="motorcycle" begin="0" end="3600" vehsPerHour="77.69" departLane="best" departPos="random" departSpeed="0" from="193253433#2" to="198876042#0"/>
  <flow id="motorcycle_193253433#2_193253427#0_00082bee" type="motorcycle" begin="0" end="3600" vehsPerHour="67.01" departLane="best" departPos="random" departSpeed="0" from="193253433#2" to="193253427#0"/>
  <flow id="car_198876045#1_28231434_00082bee" type="car" begin="0" end="3600" vehsPerHour="33.81" departLane="best" departPos="random" departSpeed="0" from="198876045#1" to="28231434"/>
  <flow id="car_198876045#1_23241821#0_00082bee" type="car" begin="0" end="3600" vehsPerHour="30.82" departLane="best" departPos="random" departSpeed="0" from="198876045#1" to="23241821#0"/>
  <flow id="car_198876045#1_198876042#0_00082bee" type="car" begin="0" end="3600" vehsPerHour="25.62" departLane="best" departPos="random" departSpeed="0" from="198876045#1" to="198876042#0"/>
  <flow id="car_198876045#1_193253427#0_00082bee" type="car" begin="0" end="3600" vehsPerHour="22.44" departLane="best" departPos="random" departSpeed="0" from="198876045#1" to="193253427#0"/>
  <flow id="car_198876045#1_198876043#2_00082bee" type="car" begin="0" end="3600" vehsPerHour="20.30" departLane="best" departPos="random" departSpeed="0" from="198876045#1" to="198876043#2"/>
  <flow id="motorcycle_198876045#1_28231434_00082bee" type="motorcycle" begin="0" end="3600" vehsPerHour="99.29" departLane="best" departPos="random" departSpeed="0" from="198876045#1" to="28231434"/>
  <flow id="motorcycle_198876045#1_23241821#0_00082bee" type="motorcycle" begin="0" end="3600" vehsPerHour="84.87" departLane="best" departPos="random" departSpeed="0" from="198876045#1" to="23241821#0"/>
  <flow id="motorcycle_198876045#1_198876042#0_00082bee" type="motorcycle" begin="0" end="3600" vehsPerHour="81.02" departLane="best" departPos="random" departSpeed="0" from="198876045#1" to="198876042#0"/>
  <flow id="motorcycle_198876045#1_193253427#0_00082bee" type="motorcycle" begin="0" end="3600" vehsPerHour="75.91" departLane="best" departPos="random" departSpeed="0" from="198876045#1" to="193253427#0"/>
  <flow id="motorcycle_198876045#1_198876043#2_00082bee" type="motorcycle" begin="0" end="3600" vehsPerHour="64.87" departLane="best" departPos="random" departSpeed="0" from="198876045#1" to="198876043#2"/>
  <flow id="car_-28231434_23241821#0_00082bee" type="car" begin="0" end="3600" vehsPerHour="22.53" departLane="best" departPos="random" departSpeed="0" from="-28231434" to="23241821#0"/>
  <flow id="car_-28231434_198876042#0_00082bee" type="car" begin="0" end="3600" vehsPerHour="19.31" departLane="best" departPos="random" departSpeed="0" from="-28231434" to="198876042#0"/>
  <flow id="car_-28231434_193253427#0_00082bee" type="car" begin="0" end="3600" vehsPerHour="17.64" departLane="best" departPos="random" departSpeed="0" from="-28231434" to="193253427#0"/>
  <flow id="car_-28231434_198876043#2_00082bee" type="car" begin="0" end="3600" vehsPerHour="17.25" departLane="best" departPos="random" departSpeed="0" from="-28231434" to="198876043#2"/>
  <flow id="car_-28231434_28231434_00082bee" type="car" begin="0" end="3600" vehsPerHour="14.13" departLane="best" departPos="random" departSpeed="0" from="-28231434" to="28231434"/>
  <flow id="motorcycle_-28231434_23241821#0_00082bee" type="motorcycle" begin="0" end="3600" vehsPerHour="64.09" departLane="best" departPos="random" departSpeed="0" from="-28231434" to="23241821#0"/>
  <flow id="motorcycle_-28231434_198876042#0_00082bee" type="motorcycle" begin="0" end="3600" vehsPerHour="62.14" departLane="best" departPos="random" departSpeed="0" from="-28231434" to="198876042#0"/>
  <flow id="motorcycle_-28231434_193253427#0_00082bee" type="motorcycle" begin="0" end="3600" vehsPerHour="51.53" departLane="best" departPos="random" departSpeed="0" from="-28231434" to="193253427#0"/>
  <flow id="motorcycle_-28231434_198876043#2_00082bee" type="motorcycle" begin="0" end="3600" vehsPerHour="48.78" departLane="best" departPos="random" departSpeed="0" from="-28231434" to="198876043#2"/>
  <flow id="motorcycle_-28231434_28231434_00082bee" type="motorcycle" begin="0" end="3600" vehsPerHour="42.11" departLane="best" departPos="random" departSpeed="0" from="-28231434" to="28231434"/>
  <flow id="car_-55029244#0_198876042#0_00082bee" type="car" begin="0" end="3600" vehsPerHour="26.81" departLane="best" departPos="random" departSpeed="0" from="-55029244#0" to="198876042#0"/>
  <flow id="car_-55029244#0_193253427#0_00082bee" type="car" begin="0" end="3600" vehsPerHour="24.48" departLane="best" departPos="random" departSpeed="0" from="-55029244#0" to="193253427#0"/>
  <flow id="car_-55029244#0_198876043#2_00082bee" type="car" begin="0" end="3600" vehsPerHour="19.41" departLane="best" departPos="random" departSpeed="0" from="-55029244#0" to="198876043#2"/>
  <flow id="car_-55029244#0_28231434_00082bee" type="car" begin="0" end="3600" vehsPerHour="16.83" departLane="best" departPos="random" departSpeed="0" from="-55029244#0" to="28231434"/>
  <flow id="car_-55029244#0_23241821#0_00082bee" type="car" begin="0" end="3600" vehsPerHour="13.75" departLane="best" departPos="random" departSpeed="0" from="-55029244#0" to="23241821#0"/>
  <flow id="motorcycle_-55029244#0_198876042#0_00082bee" type="motorcycle" begin="0" end="3600" vehsPerHour="81.06" departLane="best" departPos="random" departSpeed="0" from="-55029244#0" to="198876042#0"/>
  <flow id="motorcycle_-55029244#0_193253427#0_00082bee" type="motorcycle" begin="0" end="3600" vehsPerHour="66.83" departLane="best" departPos="random" departSpeed="0" from="-55029244#0" to="193253427#0"/>
  <flow id="motorcycle_-55029244#0_198876043#2_00082bee" type="motorcycle" begin="0" end="3600" vehsPerHour="60.94" departLane="best" departPos="random" departSpeed="0" from="-55029244#0" to="198876043#2"/>
  <flow id="motorcycle_-55029244#0_28231434_00082bee" type="motorcycle" begin="0" end="3600" vehsPerHour="54.55" departLane="best" departPos="random" departSpeed="0" from="-55029244#0" to="28231434"/>
  <flow id="motorcycle_-55029244#0_23241821#0_00082bee" type="motorcycle" begin="0" end="3600" vehsPerHour="47.59" departLane="best" departPos="random" departSpeed="0" from="-55029244#0" to="23241821#0"/>
  <flow id="car_34241530#0_198876042#0_00082bee" type="car" begin="0" end="3600" vehsPerHour="27.21" departLane="best" departPos="random" departSpeed="0" from="34241530#0" to="198876042#0"/>
  <flow id="car_34241530#0_193253427#0_00082bee" type="car" begin="0" end="3600" vehsPerHour="22.67" departLane="best" departPos="random" departSpeed="0" from="34241530#0" to="193253427#0"/>
  <flow id="car_34241530#0_198876043#2_00082bee" type="car" begin="0" end="3600" vehsPerHour="20.25" departLane="best" departPos="random" departSpeed="0" from="34241530#0" to="198876043#2"/>
  <flow id="car_34241530#0_28231434_00082bee" type="car" begin="0" end="3600" vehsPerHour="16.65" departLane="best" departPos="random" departSpeed="0" from="34241530#0" to="28231434"/>
  <flow id="car_34241530#0_23241821#0_00082bee" type="car" begin="0" end="3600" vehsPerHour="13.40" departLane="best" departPos="random" departSpeed="0" from="34241530#0" to="23241821#0"/>
  <flow id="motorcycle_34241530#0_198876042#0_00082bee" type="motorcycle" begin="0" end="3600" vehsPerHour="78.27" departLane="best" departPos="random" departSpeed="0" from="34241530#0" to="198876042#0"/>
  <flow id="motorcycle_34241530#0_193253427#0_00082bee" type="motorcycle" begin="0" end="3600" vehsPerHour="66.26" departLane="best" departPos="random" departSpeed="0" from="34241530#0" to="193253427#0"/>
  <flow id="motorcycle_34241530#0_198876043#2_00082bee" type="motorcycle" begin="0" end="3600" vehsPerHour="63.56" departLane="best" departPos="random" departSpeed="0" from="34241530#0" to="198876043#2"/>
  <flow id="motorcycle_34241530#0_28231434_00082bee" type="motorcycle" begin="0" end="3600" vehsPerHour="53.96" departLane="best" departPos="random" departSpeed="0" from="34241530#0" to="28231434"/>
  <flow id="motorcycle_34241530#0_23241821#0_00082bee" type="motorcycle" begin="0" end="3600" vehsPerHour="49.35" departLane="best" departPos="random" departSpeed="0" from="34241530#0" to="23241821#0"/>
  <flow id="truck_34241530#0_198876042#0_00082bee" type="truck" begin="0" end="3600" vehsPerHour="11.66" departLane="best" departPos="random" departSpeed="0" from="34241530#0" to="198876042#0"/>
</routes>
