<routes>
<vType id="car" vClass="passenger" accel="2.6" decel="4.5" sigma="0.5" length="5.0" maxSpeed="13.9"/>
<vType id="motorcycle" vClass="motorcycle" accel="3.0" decel="5.0" sigma="0.5" length="2.0" maxSpeed="14.0"/>
<vType id="truck" vClass="truck" accel="1.2" decel="3.5" sigma="0.5" length="12.0" maxSpeed="10.0"/>

  <flow id="car_222682222#1_193253427#0_000033ad" type="car" begin="0" end="3600" vehsPerHour="57.76" departLane="best" departPos="random" departSpeed="0" from="222682222#1" to="193253427#0"/>
  <flow id="car_222682222#1_198876043#0_000033ad" type="car" begin="0" end="3600" vehsPerHour="49.11" departLane="best" departPos="random" departSpeed="0" from="222682222#1" to="198876043#0"/>
  <flow id="car_222682222#1_28231434_000033ad" type="car" begin="0" end="3600" vehsPerHour="50.11" departLane="best" departPos="random" departSpeed="0" from="222682222#1" to="28231434"/>
  <flow id="car_222682222#1_23241821#0_000033ad" type="car" begin="0" end="3600" vehsPerHour="39.55" departLane="best" departPos="random" departSpeed="0" from="222682222#1" to="23241821#0"/>
  <flow id="car_222682222#1_198876042#0_000033ad" type="car" begin="0" end="3600" vehsPerHour="32.29" departLane="best" departPos="random" departSpeed="0" from="222682222#1" to="198876042#0"/>
  <flow id="motorcycle_222682222#1_193253427#0_000033ad" type="motorcycle" begin="0" end="3600" vehsPerHour="177.66" departLane="best" departPos="random" departSpeed="0" from="222682222#1" to="193253427#0"/>
  <flow id="motorcycle_222682222#1_198876043#0_000033ad" type="motorcycle" begin="0" end="3600" vehsPerHour="158.20" departLane="best" departPos="random" departSpeed="0" from="222682222#1" to="198876043#0"/>
  <flow id="motorcycle_222682222#1_28231434_000033ad" type="motorcycle" begin="0" end="3600" vehsPerHour="148.58" departLane="best" departPos="random" departSpeed="0" from="222682222#1" to="28231434"/>
  <flow id="motorcycle_222682222#1_23241821#0_000033ad" type="motorcycle" begin="0" end="3600" vehsPerHour="110.78" departLane="best" departPos="random" departSpeed="0" from="222682222#1" to="23241821#0"/>
  <flow id="motorcycle_222682222#1_198876042#0_000033ad" type="motorcycle" begin="0" end="3600" vehsPerHour="96.29" departLane="best" departPos="random" departSpeed="0" from="222682222#1" to="198876042#0"/>
  <flow id="car_193253433#2_198876043#0_000033ad" type="car" begin="0" end="3600" vehsPerHour="38.68" departLane="best" departPos="random" departSpeed="0" from="193253433#2" to="198876043#0"/>
  <flow id="car_193253433#2_28231434_000033ad" type="car" begin="0" end="3600" vehsPerHour="32.16" departLane="best" departPos="random" departSpeed="0" from="193253433#2" to="28231434"/>
  <flow id="car_193253433#2_23241821#0_000033ad" type="car" begin="0" end="3600" vehsPerHour="33.85" departLane="best" departPos="random" departSpeed="0" from="193253433#2" to="23241821#0"/>
  <flow id="car_193253433#2_198876042#0_000033ad" type="car" begin="0" end="3600" vehsPerHour="28.14" departLane="best" departPos="random" departSpeed="0" from="193253433#2" to="198876042#0"/>
  <flow id="car_193253433#2_193253427#0_000033ad" type="car" begin="0" end="3600" vehsPerHour="23.16" departLane="best" departPos="random" departSpeed="0" from="193253433#2" to="193253427#0"/>
  <flow id="motorcycle_193253433#2_198876043#0_000033ad" type="motorcycle" begin="0" end="3600" vehsPerHour="119.44" departLane="best" departPos="random" departSpeed="0" from="193253433#2" to="198876043#0"/>
  <flow id="motorcycle_193253433#2_28231434_000033ad" type="motorcycle" begin="0" end="3600" vehsPerHour="96.57" departLane="best" departPos="random" departSpeed="0" from="193253433#2" to="28231434"/>
  <flow id="motorcycle_193253433#2_23241821#0_000033ad" type="motorcycle" begin="0" end="3600" vehsPerHour="95.58" departLane="best" departPos="random" departSpeed="0" from="193253433#2" to="23241821#0"/>
  <flow id="motorcycle_193253433#2_198876042#0_000033ad" type="motorcycle" begin="0" end="3600" vehsPerHour="81.74" departLane="best" departPos="random" departSpeed="0" from="193253433#2" to="198876042#0"/>
  <flow id="motorcycle_193253433#2_193253427#0_000033ad" type="motorcycle" begin="0" end="3600" vehsPerHour="65.00" departLane="best" departPos="random" departSpeed="0" from="193253433#2" to="193253427#0"/>
  <flow id="car_198876045#1_28231434_000033ad" type="car" begin="0" end="3600" vehsPerHour="33.00" departLane="best" departPos="random" departSpeed="0" from="198876045#1" to="28231434"/>
  <flow id="car_198876045#1_23241821#0_000033ad" type="car" begin="0" end="3600" vehsPerHour="30.31" departLane="best" departPos="random" departSpeed="0" from="198876045#1" to="23241821#0"/>
  <flow id="car_198876045#1_198876042#0_000033ad" type="car" begin="0" end="3600" vehsPerHour="28.21" departLane="best" departPos="random" departSpeed="0" from="198876045#1" to="198876042#0"/>
  <flow id="car_198876045#1_193253427#0_000033ad" type="car" begin="0" end="3600" vehsPerHour="24.39" departLane="best" departPos="random" departSpeed="0" from="198876045#1" to="193253427#0"/>
  <flow id="car_198876045#1_198876043#2_000033ad" type="car" begin="0" end="3600" vehsPerHour="19.75" departLane="best" departPos="random" departSpeed="0" from="198876045#1" to="198876043#2"/>
  <flow id="motorcycle_198876045#1_28231434_000033ad" type="motorcycle" begin="0" end="3600" vehsPerHour="103.32" departLane="best" departPos="random" departSpeed="0" from="198876045#1" to="28231434"/>
  <flow id="motorcycle_198876045#1_23241821#0_000033ad" type="motorcycle" begin="0" end="3600" vehsPerHour="89.70" departLane="best" departPos="random" departSpeed="0" from="198876045#1" to="23241821#0"/>
  <flow id="motorcycle_198876045#1_198876042#0_000033ad" type="motorcycle" begin="0" end="3600" vehsPerHour="77.25" departLane="best" departPos="random" departSpeed="0" from="198876045#1" to="198876042#0"/>
  <flow id="motorcycle_198876045#1_193253427#0_000033ad" type="motorcycle" begin="0" end="3600" vehsPerHour="71.34" departLane="best" departPos="random" departSpeed="0" from="198876045#1" to="193253427#0"/>
  <flow id="motorcycle_198876045#1_198876043#2_000033ad" type="motorcycle" begin="0" end="3600" vehsPerHour="65.97" departLane="best" departPos="random" departSpeed="0" from="198876045#1" to="198876043#2"/>
  <flow id="car_-28231434_23241821#0_000033ad" type="car" begin="0" end="3600" vehsPerHour="24.07" departLane="best" departPos="random" departSpeed="0" from="-28231434" to="23241821#0"/>
  <flow id="car_-28231434_198876042#0_000033ad" type="car" begin="0" end="3600" vehsPerHour="19.46" departLane="best" departPos="random" departSpeed="0" from="-28231434" to="198876042#0"/>
  <flow id="car_-28231434_193253427#0_000033ad" type="car" begin="0" end="3600" vehsPerHour="16.26" departLane="best" departPos="random" departSpeed="0" from="-28231434" to="193253427#0"/>
  <flow id="car_-28231434_198876043#2_000033ad" type="car" begin="0" end="3600" vehsPerHour="17.29" departLane="best" departPos="random" departSpeed="0" from="-28231434" to="198876043#2"/>
  <flow id="car_-28231434_28231434_000033ad" type="car" begin="0" end="3600" vehsPerHour="14.09" departLane="best" departPos="random" departSpeed="0" from="-28231434" to="28231434"/>
  <flow id="motorcycle_-28231434_23241821#0_000033ad" type="motorcycle" begin="0" end="3600" vehsPerHour="67.98" departLane="best" departPos="random" departSpeed="0" from="-28231434" to="23241821#0"/>
  <flow id="motorcycle_-28231434_198876042#0_000033ad" type="motorcycle" begin="0" end="3600" vehsPerHour="60.30" departLane="best" departPos="random" departSpeed="0" from="-28231434" to="198876042#0"/>
  <flow id="motorcycle_-28231434_193253427#0_000033ad" type="motorcycle" begin="0" end="3600" vehsPerHour="51.30" departLane="best" departPos="random" departSpeed="0" from="-28231434" to="193253427#0"/>
  <flow id="motorcycle_-28231434_198876043#2_000033ad" type="motorcycle" begin="0" end="3600" vehsPerHour="46.09" departLane="best" departPos="random" departSpeed="0" from="-28231434" to="198876043#2"/>
  <flow id="motorcycle_-28231434_28231434_000033ad" type="motorcycle" begin="0" end="3600" vehsPerHour="40.63" departLane="best" departPos="random" departSpeed="0" from="-28231434" to="28231434"/>
  <flow id="car_-55029244#0_198876042#0_000033ad" type="car" begin="0" end="3600" vehsPerHour="26.92" departLane="best" departPos="random" departSpeed="0" from="-55029244#0" to="198876042#0"/>
  <flow id="car_-55029244#0_193253427#0_000033ad" type="car" begin="0" end="3600" vehsPerHour="22.84" departLane="best" departPos="random" departSpeed="0" from="-55029244#0" to="193253427#0"/>
  <flow id="car_-55029244#0_198876043#2_000033ad" type="car" begin="0" end="3600" vehsPerHour="20.89" departLane="best" departPos="random" departSpeed="0" from="-55029244#0" to="198876043#2"/>
  <flow id="car_-55029244#0_28231434_000033ad" type="car" begin="0" end="3600" vehsPerHour="16.68" departLane="best" departPos="random" departSpeed="0" from="-55029244#0" to="28231434"/>
  <flow id="car_-55029244#0_23241821#0_000033ad" type="car" begin="0" end="3600" vehsPerHour="13.34" departLane="best" departPos="random" departSpeed="0" from="-55029244#0" to="23241821#0"/>
  <flow id="motorcycle_-55029244#0_198876042#0_000033ad" type="motorcycle" begin="0" end="3600" vehsPerHour="82.64" departLane="best" departPos="random" departSpeed="0" from="-55029244#0" to="198876042#0"/>
  <flow id="motorcycle_-55029244#0_193253427#0_000033ad" type="motorcycle" begin="0" end="3600" vehsPerHour="65.36" departLane="best" departPos="random" departSpeed="0" from="-55029244#0" to="193253427#0"/>
  <flow id="motorcycle_-55029244#0_198876043#2_000033ad" type="motorcycle" begin="0" end="3600" vehsPerHour="58.08" departLane="best" departPos="random" departSpeed="0" from="-55029244#0" to="198876043#2"/>
  <flow id="motorcycle_-55029244#0_28231434_000033ad" type="motorcycle" begin="0" end="3600" vehsPerHour="55.05" departLane="best" departPos="random" departSpeed="0" from="-55029244#0" to="28231434"/>
  <flow id="motorcycle_-55029244#0_23241821#0_000033ad" type="motorcycle" begin="0" end="3600" vehsPerHour="49.35" departLane="best" departPos="random" departSpeed="0" from="-55029244#0" to="23241821#0"/>
  <flow id="car_34241530#0_198876042#0_000033ad" type="car" begin="0" end="3600" vehsPerHour="26.38" departLane="best" departPos="random" departSpeed="0" from="34241530#0" to="198876042#0"/>
  <flow id="car_34241530#0_193253427#0_000033ad" type="car" begin="0" end="3600" vehsPerHour="22.96" departLane="best" departPos="random" departSpeed="0" from="34241530#0" to="193253427#0"/>
  <flow id="car_34241530#0_198876043#2_000033ad" type="car" begin="0" end="3600" vehsPerHour="20.08" departLane="best" departPos="random" departSpeed="0" from="34241530#0" to="198876043#2"/>
  <flow id="car_34241530#0_28231434_000033ad" type="car" begin="0" end="3600" vehsPerHour="16.86" departLane="best" departPos="random" departSpeed="0" from="34241530#0" to="28231434"/>
  <flow id="car_34241530#0_23241821#0_000033ad" type="car" begin="0" end="3600" vehsPerHour="13.97" departLane="best" departPos="random" departSpeed="0" from="34241530#0" to="23241821#0"/>
  <flow id="motorcycle_34241530#0_198876042#0_000033ad" type="motorcycle" begin="0" end="3600" vehsPerHour="82.76" departLane="best" departPos="random" departSpeed="0" from="34241530#0" to="198876042#0"/>
  <flow id="motorcycle_34241530#0_193253427#0_000033ad" type="motorcycle" begin="0" end="3600" vehsPerHour="69.67" departLane="best" departPos="random" departSpeed="0" from="34241530#0" to="193253427#0"/>
  <flow id="motorcycle_34241530#0_198876043#2_000033ad" type="motorcycle" begin="0" end="3600" vehsPerHour="58.86" departLane="best" departPos="random" departSpeed="0" from="34241530#0" to="198876043#2"/>
  <flow id="motorcycle_34241530#0_28231434_000033ad" type="motorcycle" begin="0" end="3600" vehsPerHour="55.16" departLane="best" departPos="random" departSpeed="0" from="34241530#0" to="28231434"/>
  <flow id="motorcycle_34241530#0_23241821#0_000033ad" type="motorcycle" begin="0" end="3600" vehsPerHour="45.31" departLane="best" departPos="random" departSpeed="0" from="34241530#0" to="23241821#0"/>
  <flow id="truck_34241530#0_198876042#0_000033ad" type="truck" begin="0" end="3600" vehsPerHour="11.78" departLane="best" departPos="random" departSpeed="0" from="34241530#0" to="198876042#0"/>
</routes>
