<routes>
<vType id="car" vClass="passenger" accel="2.6" decel="4.5" sigma="0.5" length="5.0" maxSpeed="13.9"/>
<vType id="motorcycle" vClass="motorcycle" accel="3.0" decel="5.0" sigma="0.5" length="2.0" maxSpeed="14.0"/>
<vType id="truck" vClass="truck" accel="1.2" decel="3.5" sigma="0.5" length="12.0" maxSpeed="10.0"/>

  <flow id="car_222682222#1_193253427#0_0001a1e4" type="car" begin="0" end="3600" vehsPerHour="60.23" departLane="best" departPos="random" departSpeed="0" from="222682222#1" to="193253427#0"/>
  <flow id="car_222682222#1_198876043#0_0001a1e4" type="car" begin="0" end="3600" vehsPerHour="52.84" departLane="best" departPos="random" departSpeed="0" from="222682222#1" to="198876043#0"/>
  <flow id="car_222682222#1_28231434_0001a1e4" type="car" begin="0" end="3600" vehsPerHour="49.68" departLane="best" departPos="random" departSpeed="0" from="222682222#1" to="28231434"/>
  <flow id="car_222682222#1_23241821#0_0001a1e4" type="car" begin="0" end="3600" vehsPerHour="39.56" departLane="best" departPos="random" departSpeed="0" from="222682222#1" to="23241821#0"/>
  <flow id="car_222682222#1_198876042#0_0001a1e4" type="car" begin="0" end="3600" vehsPerHour="33.91" departLane="best" departPos="random" departSpeed="0" from="222682222#1" to="198876042#0"/>
  <flow id="motorcycle_222682222#1_193253427#0_0001a1e4" type="motorcycle" begin="0" end="3600" vehsPerHour="177.58" departLane="best" departPos="random" departSpeed="0" from="222682222#1" to="193253427#0"/>
  <flow id="motorcycle_222682222#1_198876043#0_0001a1e4" type="motorcycle" begin="0" end="3600" vehsPerHour="153.46" departLane="best" departPos="random" departSpeed="0" from="222682222#1" to="198876043#0"/>
  <flow id="motorcycle_222682222#1_28231434_0001a1e4" type="motorcycle" begin="0" end="3600" vehsPerHour="148.38" departLane="best" departPos="random" departSpeed="0" from="222682222#1" to="28231434"/>
  <flow id="motorcycle_222682222#1_23241821#0_0001a1e4" type="motorcycle" begin="0" end="3600" vehsPerHour="117.98" departLane="best" departPos="random" departSpeed="0" from="222682222#1" to="23241821#0"/>
  <flow id="motorcycle_222682222#1_198876042#0_0001a1e4" type="motorcycle" begin="0" end="3600" vehsPerHour="104.37" departLane="best" departPos="random" departSpeed="0" from="222682222#1" to="198876042#0"/>
  <flow id="car_193253433#2_198876043#0_0001a1e4" type="car" begin="0" end="3600" vehsPerHour="40.46" departLane="best" departPos="random" departSpeed="0" from="193253433#2" to="198876043#0"/>
  <flow id="car_193253433#2_28231434_0001a1e4" type="car" begin="0" end="3600" vehsPerHour="32.22" departLane="best" departPos="random" departSpeed="0" from="193253433#2" to="28231434"/>
  <flow id="car_193253433#2_23241821#0_0001a1e4" type="car" begin="0" end="3600" vehsPerHour="32.91" departLane="best" departPos="random" departSpeed="0" from="193253433#2" to="23241821#0"/>
  <flow id="car_193253433#2_198876042#0_0001a1e4" type="car" begin="0" end="3600" vehsPerHour="26.82" departLane="best" departPos="random" departSpeed="0" from="193253433#2" to="198876042#0"/>
  <flow id="car_193253433#2_193253427#0_0001a1e4" type="car" begin="0" end="3600" vehsPerHour="24.23" departLane="best" departPos="random" departSpeed="0" from="193253433#2" to="193253427#0"/>
  <flow id="motorcycle_193253433#2_198876043#0_0001a1e4" type="motorcycle" begin="0" end="3600" vehsPerHour="112.72" departLane="best" departPos="random" departSpeed="0" from="193253433#2" to="198876043#0"/>
  <flow id="motorcycle_193253433#2_28231434_0001a1e4" type="motorcycle" begin="0" end="3600" vehsPerHour="105.13" departLane="best" departPos="random" departSpeed="0" from="193253433#2" to="28231434"/>
  <flow id="motorcycle_193253433#2_23241821#0_0001a1e4" type="motorcycle" begin="0" end="3600" vehsPerHour="95.32" departLane="best" departPos="random" departSpeed="0" from="193253433#2" to="23241821#0"/>
  <flow id="motorcycle_193253433#2_198876042#0_0001a1e4" type="motorcycle" begin="0" end="3600" vehsPerHour="79.95" departLane="best" departPos="random" departSpeed="0" from="193253433#2" to="198876042#0"/>
  <flow id="motorcycle_193253433#2_193253427#0_0001a1e4" type="motorcycle" begin="0" end="3600" vehsPerHour="70.66" departLane="best" departPos="random" departSpeed="0" from="193253433#2" to="193253427#0"/>
  <flow id="car_198876045#1_28231434_0001a1e4" type="car" begin="0" end="3600" vehsPerHour="34.97" departLane="best" departPos="random" departSpeed="0" from="198876045#1" to="28231434"/>
  <flow id="car_198876045#1_23241821#0_0001a1e4" type="car" begin="0" end="3600" vehsPerHour="29.73" departLane="best" departPos="random" departSpeed="0" from="198876045#1" to="23241821#0"/>
  <flow id="car_198876045#1_198876042#0_0001a1e4" type="car" begin="0" end="3600" vehsPerHour="27.49" departLane="best" departPos="random" departSpeed="0" from="198876045#1" to="198876042#0"/>
  <flow id="car_198876045#1_193253427#0_0001a1e4" type="car" begin="0" end="3600" vehsPerHour="22.85" departLane="best" departPos="random" departSpeed="0" from="198876045#1" to="193253427#0"/>
  <flow id="car_198876045#1_198876043#2_0001a1e4" type="car" begin="0" end="3600" vehsPerHour="20.23" departLane="best" departPos="random" departSpeed="0" from="198876045#1" to="198876043#2"/>
  <flow id="motorcycle_198876045#1_28231434_0001a1e4" type="motorcycle" begin="0" end="3600" vehsPerHour="105.65" departLane="best" departPos="random" departSpeed="0" from="198876045#1" to="28231434"/>
  <flow id="motorcycle_198876045#1_23241821#0_0001a1e4" type="motorcycle" begin="0" end="3600" vehsPerHour="89.35" departLane="best" departPos="random" departSpeed="0" from="198876045#1" to="23241821#0"/>
  <flow id="motorcycle_198876045#1_198876042#0_0001a1e4" type="motorcycle" begin="0" end="3600" vehsPerHour="81.86" departLane="best" departPos="random" departSpeed="0" from="198876045#1" to="198876042#0"/>
  <flow id="motorcycle_198876045#1_193253427#0_0001a1e4" type="motorcycle" begin="0" end="3600" vehsPerHour="75.81" departLane="best" departPos="random" departSpeed="0" from="198876045#1" to="193253427#0"/>
  <flow id="motorcycle_198876045#1_198876043#2_0001a1e4" type="motorcycle" begin="0" end="3600" vehsPerHour="67.24" departLane="best" departPos="random" departSpeed="0" from="198876045#1" to="198876043#2"/>
  <flow id="car_-28231434_23241821#0_0001a1e4" type="car" begin="0" end="3600" vehsPerHour="22.95" departLane="best" departPos="random" departSpeed="0" from="-28231434" to="23241821#0"/>
  <flow id="car_-28231434_198876042#0_0001a1e4" type="car" begin="0" end="3600" vehsPerHour="20.23" departLane="best" departPos="random" departSpeed="0" from="-28231434" to="198876042#0"/>
  <flow id="car_-28231434_193253427#0_0001a1e4" type="car" begin="0" end="3600" vehsPerHour="16.44" departLane="best" departPos="random" departSpeed="0" from="-28231434" to="193253427#0"/>
  <flow id="car_-28231434_198876043#2_0001a1e4" type="car" begin="0" end="3600" vehsPerHour="16.14" departLane="best" departPos="random" departSpeed="0" from="-28231434" to="198876043#2"/>
  <flow id="car_-28231434_28231434_0001a1e4" type="car" begin="0" end="3600" vehsPerHour="13.64" departLane="best" departPos="random" departSpeed="0" from="-28231434" to="28231434"/>
  <flow id="motorcycle_-28231434_23241821#0_0001a1e4" type="motorcycle" begin="0" end="3600" vehsPerHour="67.77" departLane="best" departPos="random" departSpeed="0" from="-28231434" to="23241821#0"/>
  <flow id="motorcycle_-28231434_198876042#0_0001a1e4" type="motorcycle" begin="0" end="3600" vehsPerHour="61.68" departLane="best" departPos="random" departSpeed="0" from="-28231434" to="198876042#0"/>
  <flow id="motorcycle_-28231434_193253427#0_0001a1e4" type="motorcycle" begin="0" end="3600" vehsPerHour="54.04" departLane="best" departPos="random" departSpeed="0" from="-28231434" to="193253427#0"/>
  <flow id="motorcycle_-28231434_198876043#2_0001a1e4" type="motorcycle" begin="0" end="3600" vehsPerHour="46.86" departLane="best" departPos="random" departSpeed="0" from="-28231434" to="198876043#2"/>
  <flow id="motorcycle_-28231434_28231434_0001a1e4" type="motorcycle" begin="0" end="3600" vehsPerHour="40.62" departLane="best" departPos="random" departSpeed="0" from="-28231434" to="28231434"/>
  <flow id="car_-55029244#0_198876042#0_0001a1e4" type="car" begin="0" end="3600" vehsPerHour="25.89" departLane="best" departPos="random" departSpeed="0" from="-55029244#0" to="198876042#0"/>
  <flow id="car_-55029244#0_193253427#0_0001a1e4" type="car" begin="0" end="3600" vehsPerHour="23.80" departLane="best" departPos="random" departSpeed="0" from="-55029244#0" to="193253427#0"/>
  <flow id="car_-55029244#0_198876043#2_0001a1e4" type="car" begin="0" end="3600" vehsPerHour="20.55" departLane="best" departPos="random" departSpeed="0" from="-55029244#0" to="198876043#2"/>
  <flow id="car_-55029244#0_28231434_0001a1e4" type="car" begin="0" end="3600" vehsPerHour="16.15" departLane="best" departPos="random" departSpeed="0" from="-55029244#0" to="28231434"/>
  <flow id="car_-55029244#0_23241821#0_0001a1e4" type="car" begin="0" end="3600" vehsPerHour="13.64" departLane="best" departPos="random" departSpeed="0" from="-55029244#0" to="23241821#0"/>
  <flow id="motorcycle_-55029244#0_198876042#0_0001a1e4" type="motorcycle" begin="0" end="3600" vehsPerHour="77.83" departLane="best" departPos="random" departSpeed="0" from="-55029244#0" to="198876042#0"/>
  <flow id="motorcycle_-55029244#0_193253427#0_0001a1e4" type="motorcycle" begin="0" end="3600" vehsPerHour="68.66" departLane="best" departPos="random" departSpeed="0" from="-55029244#0" to="193253427#0"/>
  <flow id="motorcycle_-55029244#0_198876043#2_0001a1e4" type="motorcycle" begin="0" end="3600" vehsPerHour="61.19" departLane="best" departPos="random" departSpeed="0" from="-55029244#0" to="198876043#2"/>
  <flow id="motorcycle_-55029244#0_28231434_0001a1e4" type="motorcycle" begin="0" end="3600" vehsPerHour="54.80" departLane="best" departPos="random" departSpeed="0" from="-55029244#0" to="28231434"/>
  <flow id="motorcycle_-55029244#0_23241821#0_0001a1e4" type="motorcycle" begin="0" end="3600" vehsPerHour="47.54" departLane="best" departPos="random" departSpeed="0" from="-55029244#0" to="23241821#0"/>
  <flow id="car_34241530#0_198876042#0_0001a1e4" type="car" begin="0" end="3600" vehsPerHour="27.89" departLane="best" departPos="random" departSpeed="0" from="34241530#0" to="198876042#0"/>
  <flow id="car_34241530#0_193253427#0_0001a1e4" type="car" begin="0" end="3600" vehsPerHour="23.64" departLane="best" departPos="random" departSpeed="0" from="34241530#0" to="193253427#0"/>
  <flow id="car_34241530#0_198876043#2_0001a1e4" type="car" begin="0" end="3600" vehsPerHour="19.61" departLane="best" departPos="random" departSpeed="0" from="34241530#0" to="198876043#2"/>
  <flow id="car_34241530#0_28231434_0001a1e4" type="car" begin="0" end="3600" vehsPerHour="16.77" departLane="best" departPos="random" departSpeed="0" from="34241530#0" to="28231434"/>
  <flow id="car_34241530#0_23241821#0_0001a1e4" type="car" begin="0" end="3600" vehsPerHour="13.07" departLane="best" departPos="random" departSpeed="0" from="34241530#0" to="23241821#0"/>
  <flow id="motorcycle_34241530#0_198876042#0_0001a1e4" type="motorcycle" begin="0" end="3600" vehsPerHour="77.81" departLane="best" departPos="random" departSpeed="0" from="34241530#0" to="198876042#0"/>
  <flow id="motorcycle_34241530#0_193253427#0_0001a1e4" type="motorcycle" begin="0" end="3600" vehsPerHour="70.05" departLane="best" departPos="random" departSpeed="0" from="34241530#0" to="193253427#0"/>
  <flow id="motorcycle_34241530#0_198876043#2_0001a1e4" type="motorcycle" begin="0" end="3600" vehsPerHour="59.70" departLane="best" departPos="random" departSpeed="0" from="34241530#0" to="198876043#2"/>
  <flow id="motorcycle_34241530#0_28231434_0001a1e4" type="motorcycle" begin="0" end="3600" vehsPerHour="51.24" departLane="best" departPos="random" departSpeed="0" from="34241530#0" to="28231434"/>
  <flow id="motorcycle_34241530#0_23241821#0_0001a1e4" type="motorcycle" begin="0" end="3600" vehsPerHour="45.94" departLane="best" departPos="random" departSpeed="0" from="34241530#0" to="23241821#0"/>
  <flow id="truck_34241530#0_198876042#0_0001a1e4" type="truck" begin="0" end="3600" vehsPerHour="11.23" departLane="best" departPos="random" departSpeed="0" from="34241530#0" to="198876042#0"/>
</routes>
