<routes>
<vType id="car" vClass="passenger" accel="2.6" decel="4.5" sigma="0.5" length="5.0" maxSpeed="13.9"/>
<vType id="motorcycle" vClass="motorcycle" accel="3.0" decel="5.0" sigma="0.5" length="2.0" maxSpeed="14.0"/>
<vType id="truck" vClass="truck" accel="1.2" decel="3.5" sigma="0.5" length="12.0" maxSpeed="10.0"/>

  <flow id="car_222682222#1_193253427#0_0008dbde" type="car" begin="0" end="3600" vehsPerHour="63.34" departLane="best" departPos="random" departSpeed="0" from="222682222#1" to="193253427#0"/>
  <flow id="car_222682222#1_198876043#0_0008dbde" type="car" begin="0" end="3600" vehsPerHour="51.56" departLane="best" departPos="random" departSpeed="0" from="222682222#1" to="198876043#0"/>
  <flow id="car_222682222#1_28231434_0008dbde" type="car" begin="0" end="3600" vehsPerHour="52.36" departLane="best" departPos="random" departSpeed="0" from="222682222#1" to="28231434"/>
  <flow id="car_222682222#1_23241821#0_0008dbde" type="car" begin="0" end="3600" vehsPerHour="40.12" departLane="best" departPos="random" departSpeed="0" from="222682222#1" to="23241821#0"/>
  <flow id="car_222682222#1_198876042#0_0008dbde" type="car" begin="0" end="3600" vehsPerHour="32.07" departLane="best" departPos="random" departSpeed="0" from="222682222#1" to="198876042#0"/>
  <flow id="motorcycle_222682222#1_193253427#0_0008dbde" type="motorcycle" begin="0" end="3600" vehsPerHour="166.95" departLane="best" departPos="random" departSpeed="0" from="222682222#1" to="193253427#0"/>
  <flow id="motorcycle_222682222#1_198876043#0_0008dbde" type="motorcycle" begin="0" end="3600" vehsPerHour="150.66" departLane="best" departPos="random" departSpeed="0" from="222682222#1" to="198876043#0"/>
  <flow id="motorcycle_222682222#1_28231434_0008dbde" type="motorcycle" begin="0" end="3600" vehsPerHour="140.67" departLane="best" departPos="random" departSpeed="0" from="222682222#1" to="28231434"/>
  <flow id="motorcycle_222682222#1_23241821#0_0008dbde" type="motorcycle" begin="0" end="3600" vehsPerHour="117.36" departLane="best" departPos="random" departSpeed="0" from="222682222#1" to="23241821#0"/>
  <flow id="motorcycle_222682222#1_198876042#0_0008dbde" type="motorcycle" begin="0" end="3600" vehsPerHour="97.07" departLane="best" departPos="random" departSpeed="0" from="222682222#1" to="198876042#0"/>
  <flow id="car_193253433#2_198876043#0_0008dbde" type="car" begin="0" end="3600" vehsPerHour="42.33" departLane="best" departPos="random" departSpeed="0" from="193253433#2" to="198876043#0"/>
  <flow id="car_193253433#2_28231434_0008dbde" type="car" begin="0" end="3600" vehsPerHour="34.76" departLane="best" departPos="random" departSpeed="0" from="193253433#2" to="28231434"/>
  <flow id="car_193253433#2_23241821#0_0008dbde" type="car" begin="0" end="3600" vehsPerHour="32.10" departLane="best" departPos="random" departSpeed="0" from="193253433#2" to="23241821#0"/>
  <flow id="car_193253433#2_198876042#0_0008dbde" type="car" begin="0" end="3600" vehsPerHour="26.12" departLane="best" departPos="random" departSpeed="0" from="193253433#2" to="198876042#0"/>
  <flow id="car_193253433#2_193253427#0_0008dbde" type="car" begin="0" end="3600" vehsPerHour="22.96" departLane="best" departPos="random" departSpeed="0" from="193253433#2" to="193253427#0"/>
  <flow id="motorcycle_193253433#2_198876043#0_0008dbde" type="motorcycle" begin="0" end="3600" vehsPerHour="117.12" departLane="best" departPos="random" departSpeed="0" from="193253433#2" to="198876043#0"/>
  <flow id="motorcycle_193253433#2_28231434_0008dbde" type="motorcycle" begin="0" end="3600" vehsPerHour="103.85" departLane="best" departPos="random" departSpeed="0" from="193253433#2" to="28231434"/>
  <flow id="motorcycle_193253433#2_23241821#0_0008dbde" type="motorcycle" begin="0" end="3600" vehsPerHour="94.26" departLane="best" departPos="random" departSpeed="0" from="193253433#2" to="23241821#0"/>
  <flow id="motorcycle_193253433#2_198876042#0_0008dbde" type="motorcycle" begin="0" end="3600" vehsPerHour="78.87" departLane="best" departPos="random" departSpeed="0" from="193253433#2" to="198876042#0"/>
  <flow id="motorcycle_193253433#2_193253427#0_0008dbde" type="motorcycle" begin="0" end="3600" vehsPerHour="69.16" departLane="best" departPos="random" departSpeed="0" from="193253433#2" to="193253427#0"/>
  <flow id="car_198876045#1_28231434_0008dbde" type="car" begin="0" end="3600" vehsPerHour="32.84" departLane="best" departPos="random" departSpeed="0" from="198876045#1" to="28231434"/>
  <flow id="car_198876045#1_23241821#0_0008dbde" type="car" begin="0" end="3600" vehsPerHour="29.27" departLane="best" departPos="random" departSpeed="0" from="198876045#1" to="23241821#0"/>
  <flow id="car_198876045#1_198876042#0_0008dbde" type="car" begin="0" end="3600" vehsPerHour="27.06" departLane="best" departPos="random" departSpeed="0" from="198876045#1" to="198876042#0"/>
  <flow id="car_198876045#1_193253427#0_0008dbde" type="car" begin="0" end="3600" vehsPerHour="23.48" departLane="best" departPos="random" departSpeed="0" from="198876045#1" to="193253427#0"/>
  <flow id="car_198876045#1_198876043#2_0008dbde" type="car" begin="0" end="3600" vehsPerHour="19.34" departLane="best" departPos="random" departSpeed="0" from="198876045#1" to="198876043#2"/>
  <flow id="motorcycle_198876045#1_28231434_0008dbde" type="motorcycle" begin="0" end="3600" vehsPerHour="104.10" departLane="best" departPos="random" departSpeed="0" from="198876045#1" to="28231434"/>
  <flow id="motorcycle_198876045#1_23241821#0_0008dbde" type="motorcycle" begin="0" end="3600" vehsPerHour="85.49" departLane="best" departPos="random" departSpeed="0" from="198876045#1" to="23241821#0"/>
  <flow id="motorcycle_198876045#1_198876042#0_0008dbde" type="motorcycle" begin="0" end="3600" vehsPerHour="79.80" departLane="best" departPos="random" departSpeed="0" from="198876045#1" to="198876042#0"/>
  <flow id="motorcycle_198876045#1_193253427#0_0008dbde" type="motorcycle" begin="0" end="3600" vehsPerHour="73.77" departLane="best" departPos="random" departSpeed="0" from="198876045#1" to="193253427#0"/>
  <flow id="motorcycle_198876045#1_198876043#2_0008dbde" type="motorcycle" begin="0" end="3600" vehsPerHour="64.70" departLane="best" departPos="random" departSpeed="0" from="198876045#1" to="198876043#2"/>
  <flow id="car_-28231434_23241821#0_0008dbde" type="car" begin="0" end="3600" vehsPerHour="22.80" departLane="best" departPos="random" departSpeed="0" from="-28231434" to="23241821#0"/>
  <flow id="car_-28231434_198876042#0_0008dbde" type="car" begin="0" end="3600" vehsPerHour="19.81" departLane="best" departPos="random" departSpeed="0" from="-28231434" to="198876042#0"/>
  <flow id="car_-28231434_193253427#0_0008dbde" type="car" begin="0" end="3600" vehsPerHour="16.42" departLane="best" departPos="random" departSpeed="0" from="-28231434" to="193253427#0"/>
  <flow id="car_-28231434_198876043#2_0008dbde" type="car" begin="0" end="3600" vehsPerHour="17.19" departLane="best" departPos="random" departSpeed="0" from="-28231434" to="198876043#2"/>
  <flow id="car_-28231434_28231434_0008dbde" type="car" begin="0" end="3600" vehsPerHour="14.05" departLane="best" departPos="random" departSpeed="0" from="-28231434" to="28231434"/>
  <flow id="motorcycle_-28231434_23241821#0_0008dbde" type="motorcycle" begin="0" end="3600" vehsPerHour="64.73" departLane="best" departPos="random" departSpeed="0" from="-28231434" to="23241821#0"/>
  <flow id="motorcycle_-28231434_198876042#0_0008dbde" type="motorcycle" begin="0" end="3600" vehsPerHour="61.51" departLane="best" departPos="random" departSpeed="0" from="-28231434" to="198876042#0"/>
  <flow id="motorcycle_-28231434_193253427#0_0008dbde" type="motorcycle" begin="0" end="3600" vehsPerHour="56.22" departLane="best" departPos="random" departSpeed="0" from="-28231434" to="193253427#0"/>
  <flow id="motorcycle_-28231434_198876043#2_0008dbde" type="motorcycle" begin="0" end="3600" vehsPerHour="45.50" departLane="best" departPos="random" departSpeed="0" from="-28231434" to="198876043#2"/>
  <flow id="motorcycle_-28231434_28231434_0008dbde" type="motorcycle" begin="0" end="3600" vehsPerHour="39.77" departLane="best" departPos="random" departSpeed="0" from="-28231434" to="28231434"/>
  <flow id="car_-55029244#0_198876042#0_0008dbde" type="car" begin="0" end="3600" vehsPerHour="27.03" departLane="best" departPos="random" departSpeed="0" from="-55029244#0" to="198876042#0"/>
  <flow id="car_-55029244#0_193253427#0_0008dbde" type="car" begin="0" end="3600" vehsPerHour="23.90" departLane="best" departPos="random" departSpeed="0" from="-55029244#0" to="193253427#0"/>
  <flow id="car_-55029244#0_198876043#2_0008dbde" type="car" begin="0" end="3600" vehsPerHour="19.32" departLane="best" departPos="random" departSpeed="0" from="-55029244#0" to="198876043#2"/>
  <flow id="car_-55029244#0_28231434_0008dbde" type="car" begin="0" end="3600" vehsPerHour="16.52" departLane="best" departPos="random" departSpeed="0" from="-55029244#0" to="28231434"/>
  <flow id="car_-55029244#0_23241821#0_0008dbde" type="car" begin="0" end="3600" vehsPerHour="14.04" departLane="best" departPos="random" departSpeed="0" from="-55029244#0" to="23241821#0"/>
  <flow id="motorcycle_-55029244#0_198876042#0_0008dbde" type="motorcycle" begin="0" end="3600" vehsPerHour="84.55" departLane="best" departPos="random" departSpeed="0" from="-55029244#0" to="198876042#0"/>
  <flow id="motorcycle_-55029244#0_193253427#0_0008dbde" type="motorcycle" begin="0" end="3600" vehsPerHour="69.92" departLane="best" departPos="random" departSpeed="0" from="-55029244#0" to="193253427#0"/>
  <flow id="motorcycle_-55029244#0_198876043#2_0008dbde" type="motorcycle" begin="0" end="3600" vehsPerHour="59.87" departLane="best" departPos="random" departSpeed="0" from="-55029244#0" to="198876043#2"/>
  <flow id="motorcycle_-55029244#0_28231434_0008dbde" type="motorcycle" begin="0" end="3600" vehsPerHour="51.45" departLane="best" departPos="random" departSpeed="0" from="-55029244#0" to="28231434"/>
  <flow id="motorcycle_-55029244#0_23241821#0_0008dbde" type="motorcycle" begin="0" end="3600" vehsPerHour="46.07" departLane="best" departPos="random" departSpeed="0" from="-55029244#0" to="23241821#0"/>
  <flow id="car_34241530#0_198876042#0_0008dbde" type="car" begin="0" end="3600" vehsPerHour="27.64" departLane="best" departPos="random" departSpeed="0" from="34241530#0" to="198876042#0"/>
  <flow id="car_34241530#0_193253427#0_0008dbde" type="car" begin="0" end="3600" vehsPerHour="23.83" departLane="best" departPos="random" departSpeed="0" from="34241530#0" to="193253427#0"/>
  <flow id="car_34241530#0_198876043#2_0008dbde" type="car" begin="0" end="3600" vehsPerHour="20.45" departLane="best" departPos="random" departSpeed="0" from="34241530#0" to="198876043#2"/>
  <flow id="car_34241530#0_28231434_0008dbde" type="car" begin="0" end="3600" vehsPerHour="17.17" departLane="best" departPos="random" departSpeed="0" from="34241530#0" to="28231434"/>
  <flow id="car_34241530#0_23241821#0_0008dbde" type="car" begin="0" end="3600" vehsPerHour="14.02" departLane="best" departPos="random" departSpeed="0" from="34241530#0" to="23241821#0"/>
  <flow id="motorcycle_34241530#0_198876042#0_0008dbde" type="motorcycle" begin="0" end="3600" vehsPerHour="80.67" departLane="best" departPos="random" departSpeed="0" from="34241530#0" to="198876042#0"/>
  <flow id="motorcycle_34241530#0_193253427#0_0008dbde" type="motorcycle" begin="0" end="3600" vehsPerHour="69.52" departLane="best" departPos="random" departSpeed="0" from="34241530#0" to="193253427#0"/>
  <flow id="motorcycle_34241530#0_198876043#2_0008dbde" type="motorcycle" begin="0" end="3600" vehsPerHour="59.33" departLane="best" departPos="random" departSpeed="0" from="34241530#0" to="198876043#2"/>
  <flow id="motorcycle_34241530#0_28231434_0008dbde" type="motorcycle" begin="0" end="3600" vehsPerHour="53.54" departLane="best" departPos="random" departSpeed="0" from="34241530#0" to="28231434"/>
  <flow id="motorcycle_34241530#0_23241821#0_0008dbde" type="motorcycle" begin="0" end="3600" vehsPerHour="45.57" departLane="best" departPos="random" departSpeed="0" from="34241530#0" to="23241821#0"/>
  <flow id="truck_34241530#0_198876042#0_0008dbde" type="truck" begin="0" end="3600" vehsPerHour="11.38" departLane="best" departPos="random" departSpeed="0" from="34241530#0" to="198876042#0"/>
</routes>
