<routes>
<vType id="car" vClass="passenger" accel="2.6" decel="4.5" sigma="0.5" length="5.0" maxSpeed="13.9"/>
<vType id="motorcycle" vClass="motorcycle" accel="3.0" decel="5.0" sigma="0.5" length="2.0" maxSpeed="14.0"/>
<vType id="truck" vClass="truck" accel="1.2" decel="3.5" sigma="0.5" length="12.0" maxSpeed="10.0"/>

  <flow id="car_222682222#1_193253427#0_00081489" type="car" begin="0" end="3600" vehsPerHour="60.40" departLane="best" departPos="random" departSpeed="0" from="222682222#1" to="193253427#0"/>
  <flow id="car_222682222#1_198876043#0_00081489" type="car" begin="0" end="3600" vehsPerHour="52.78" departLane="best" departPos="random" departSpeed="0" from="222682222#1" to="198876043#0"/>
  <flow id="car_222682222#1_28231434_00081489" type="car" begin="0" end="3600" vehsPerHour="50.29" departLane="best" departPos="random" departSpeed="0" from="222682222#1" to="28231434"/>
  <flow id="car_222682222#1_23241821#0_00081489" type="car" begin="0" end="3600" vehsPerHour="39.28" departLane="best" departPos="random" departSpeed="0" from="222682222#1" to="23241821#0"/>
  <flow id="car_222682222#1_198876042#0_00081489" type="car" begin="0" end="3600" vehsPerHour="33.97" departLane="best" departPos="random" departSpeed="0" from="222682222#1" to="198876042#0"/>
  <flow id="motorcycle_222682222#1_193253427#0_00081489" type="motorcycle" begin="0" end="3600" vehsPerHour="171.02" departLane="best" departPos="random" departSpeed="0" from="222682222#1" to="193253427#0"/>
  <flow id="motorcycle_222682222#1_198876043#0_00081489" type="motorcycle" begin="0" end="3600" vehsPerHour="148.65" departLane="best" departPos="random" departSpeed="0" from="222682222#1" to="198876043#0"/>
  <flow id="motorcycle_222682222#1_28231434_00081489" type="motorcycle" begin="0" end="3600" vehsPerHour="145.89" departLane="best" departPos="random" departSpeed="0" from="222682222#1" to="28231434"/>
  <flow id="motorcycle_222682222#1_23241821#0_00081489" type="motorcycle" begin="0" end="3600" vehsPerHour="115.00" departLane="best" departPos="random" departSpeed="0" from="222682222#1" to="23241821#0"/>
  <flow id="motorcycle_222682222#1_198876042#0_00081489" type="motorcycle" begin="0" end="3600" vehsPerHour="105.18" departLane="best" departPos="random" departSpeed="0" from="222682222#1" to="198876042#0"/>
  <flow id="car_193253433#2_198876043#0_00081489" type="car" begin="0" end="3600" vehsPerHour="38.87" departLane="best" departPos="random" departSpeed="0" from="193253433#2" to="198876043#0"/>
  <flow id="car_193253433#2_28231434_00081489" type="car" begin="0" end="3600" vehsPerHour="34.58" departLane="best" departPos="random" departSpeed="0" from="193253433#2" to="28231434"/>
  <flow id="car_193253433#2_23241821#0_00081489" type="car" begin="0" end="3600" vehsPerHour="34.88" departLane="best" departPos="random" departSpeed="0" from="193253433#2" to="23241821#0"/>
  <flow id="car_193253433#2_198876042#0_00081489" type="car" begin="0" end="3600" vehsPerHour="25.81" departLane="best" departPos="random" departSpeed="0" from="193253433#2" to="198876042#0"/>
  <flow id="car_193253433#2_193253427#0_00081489" type="car" begin="0" end="3600" vehsPerHour="23.75" departLane="best" departPos="random" departSpeed="0" from="193253433#2" to="193253427#0"/>
  <flow id="motorcycle_193253433#2_198876043#0_00081489" type="motorcycle" begin="0" end="3600" vehsPerHour="109.39" departLane="best" departPos="random" departSpeed="0" from="193253433#2" to="198876043#0"/>
  <flow id="motorcycle_193253433#2_28231434_00081489" type="motorcycle" begin="0" end="3600" vehsPerHour="101.77" departLane="best" departPos="random" departSpeed="0" from="193253433#2" to="28231434"/>
  <flow id="motorcycle_193253433#2_23241821#0_00081489" type="motorcycle" begin="0" end="3600" vehsPerHour="89.78" departLane="best" departPos="random" departSpeed="0" from="193253433#2" to="23241821#0"/>
  <flow id="motorcycle_193253433#2_198876042#0_00081489" type="motorcycle" begin="0" end="3600" vehsPerHour="83.68" departLane="best" departPos="random" departSpeed="0" from="193253433#2" to="198876042#0"/>
  <flow id="motorcycle_193253433#2_193253427#0_00081489" type="motorcycle" begin="0" end="3600" vehsPerHour="69.87" departLane="best" departPos="random" departSpeed="0" from="193253433#2" to="193253427#0"/>
  <flow id="car_198876045#1_28231434_00081489" type="car" begin="0" end="3600" vehsPerHour="33.17" departLane="best" departPos="random" departSpeed="0" from="198876045#1" to="28231434"/>
  <flow id="car_198876045#1_23241821#0_00081489" type="car" begin="0" end="3600" vehsPerHour="31.06" departLane="best" departPos="random" departSpeed="0" from="198876045#1" to="23241821#0"/>
  <flow id="car_198876045#1_198876042#0_00081489" type="car" begin="0" end="3600" vehsPerHour="27.80" departLane="best" departPos="random" departSpeed="0" from="198876045#1" to="198876042#0"/>
  <flow id="car_198876045#1_193253427#0_00081489" type="car" begin="0" end="3600" vehsPerHour="24.41" departLane="best" departPos="random" departSpeed="0" from="198876045#1" to="193253427#0"/>
  <flow id="car_198876045#1_198876043#2_00081489" type="car" begin="0" end="3600" vehsPerHour="19.42" departLane="best" departPos="random" departSpeed="0" from="198876045#1" to="198876043#2"/>
  <flow id="motorcycle_198876045#1_28231434_00081489" type="motorcycle" begin="0" end="3600" vehsPerHour="103.67" departLane="best" departPos="random" departSpeed="0" from="198876045#1" to="28231434"/>
  <flow id="motorcycle_198876045#1_23241821#0_00081489" type="motorcycle" begin="0" end="3600" vehsPerHour="89.85" departLane="best" departPos="random" departSpeed="0" from="198876045#1" to="23241821#0"/>
  <flow id="motorcycle_198876045#1_198876042#0_00081489" type="motorcycle" begin="0" end="3600" vehsPerHour="84.50" departLane="best" departPos="random" departSpeed="0" from="198876045#1" to="198876042#0"/>
  <flow id="motorcycle_198876045#1_193253427#0_00081489" type="motorcycle" begin="0" end="3600" vehsPerHour="75.55" departLane="best" departPos="random" departSpeed="0" from="198876045#1" to="193253427#0"/>
  <flow id="motorcycle_198876045#1_198876043#2_00081489" type="motorcycle" begin="0" end="3600" vehsPerHour="68.44" departLane="best" departPos="random" departSpeed="0" from="198876045#1" to="198876043#2"/>
  <flow id="car_-28231434_23241821#0_00081489" type="car" begin="0" end="3600" vehsPerHour="24.32" departLane="best" departPos="random" departSpeed="0" from="-28231434" to="23241821#0"/>
  <flow id="car_-28231434_198876042#0_00081489" type="car" begin="0" end="3600" vehsPerHour="19.53" departLane="best" departPos="random" departSpeed="0" from="-28231434" to="198876042#0"/>
  <flow id="car_-28231434_193253427#0_00081489" type="car" begin="0" end="3600" vehsPerHour="17.54" departLane="best" departPos="random" departSpeed="0" from="-28231434" to="193253427#0"/>
  <flow id="car_-28231434_198876043#2_00081489" type="car" begin="0" end="3600" vehsPerHour="17.50" departLane="best" departPos="random" departSpeed="0" from="-28231434" to="198876043#2"/>
  <flow id="car_-28231434_28231434_00081489" type="car" begin="0" end="3600" vehsPerHour="13.40" departLane="best" departPos="random" departSpeed="0" from="-28231434" to="28231434"/>
  <flow id="motorcycle_-28231434_23241821#0_00081489" type="motorcycle" begin="0" end="3600" vehsPerHour="65.70" departLane="best" departPos="random" departSpeed="0" from="-28231434" to="23241821#0"/>
  <flow id="motorcycle_-28231434_198876042#0_00081489" type="motorcycle" begin="0" end="3600" vehsPerHour="61.95" departLane="best" departPos="random" departSpeed="0" from="-28231434" to="198876042#0"/>
  <flow id="motorcycle_-28231434_193253427#0_00081489" type="motorcycle" begin="0" end="3600" vehsPerHour="54.96" departLane="best" departPos="random" departSpeed="0" from="-28231434" to="193253427#0"/>
  <flow id="motorcycle_-28231434_198876043#2_00081489" type="motorcycle" begin="0" end="3600" vehsPerHour="47.41" departLane="best" departPos="random" departSpeed="0" from="-28231434" to="198876043#2"/>
  <flow id="motorcycle_-28231434_28231434_00081489" type="motorcycle" begin="0" end="3600" vehsPerHour="40.15" departLane="best" departPos="random" departSpeed="0" from="-28231434" to="28231434"/>
  <flow id="car_-55029244#0_198876042#0_00081489" type="car" begin="0" end="3600" vehsPerHour="26.76" departLane="best" departPos="random" departSpeed="0" from="-55029244#0" to="198876042#0"/>
  <flow id="car_-55029244#0_193253427#0_00081489" type="car" begin="0" end="3600" vehsPerHour="23.77" departLane="best" departPos="random" departSpeed="0" from="-55029244#0" to="193253427#0"/>
  <flow id="car_-55029244#0_198876043#2_00081489" type="car" begin="0" end="3600" vehsPerHour="19.92" departLane="best" departPos="random" departSpeed="0" from="-55029244#0" to="198876043#2"/>
  <flow id="car_-55029244#0_28231434_00081489" type="car" begin="0" end="3600" vehsPerHour="16.48" departLane="best" departPos="random" departSpeed="0" from="-55029244#0" to="28231434"/>
  <flow id="car_-55029244#0_23241821#0_00081489" type="car" begin="0" end="3600" vehsPerHour="13.28" departLane="best" departPos="random" departSpeed="0" from="-55029244#0" to="23241821#0"/>
  <flow id="motorcycle_-55029244#0_198876042#0_00081489" type="motorcycle" begin="0" end="3600" vehsPerHour="80.92" departLane="best" departPos="random" departSpeed="0" from="-55029244#0" to="198876042#0"/>
  <flow id="motorcycle_-55029244#0_193253427#0_00081489" type="motorcycle" begin="0" end="3600" vehsPerHour="64.05" departLane="best" departPos="random" departSpeed="0" from="-55029244#0" to="193253427#0"/>
  <flow id="motorcycle_-55029244#0_198876043#2_00081489" type="motorcycle" begin="0" end="3600" vehsPerHour="62.44" departLane="best" departPos="random" departSpeed="0" from="-55029244#0" to="198876043#2"/>
  <flow id="motorcycle_-55029244#0_28231434_00081489" type="motorcycle" begin="0" end="3600" vehsPerHour="56.51" departLane="best" departPos="random" departSpeed="0" from="-55029244#0" to="28231434"/>
  <flow id="motorcycle_-55029244#0_23241821#0_00081489" type="motorcycle" begin="0" end="3600" vehsPerHour="46.29" departLane="best" departPos="random" departSpeed="0" from="-55029244#0" to="23241821#0"/>
  <flow id="car_34241530#0_198876042#0_00081489" type="car" begin="0" end="3600" vehsPerHour="27.46" departLane="best" departPos="random" departSpeed="0" from="34241530#0" to="198876042#0"/>
  <flow id="car_34241530#0_193253427#0_00081489" type="car" begin="0" end="3600" vehsPerHour="24.02" departLane="best" departPos="random" departSpeed="0" from="34241530#0" to="193253427#0"/>
  <flow id="car_34241530#0_198876043#2_00081489" type="car" begin="0" end="3600" vehsPerHour="20.88" departLane="best" departPos="random" departSpeed="0" from="34241530#0" to="198876043#2"/>
  <flow id="car_34241530#0_28231434_00081489" type="car" begin="0" end="3600" vehsPerHour="16.12" departLane="best" departPos="random" departSpeed="0" from="34241530#0" to="28231434"/>
  <flow id="car_34241530#0_23241821#0_00081489" type="car" begin="0" end="3600" vehsPerHour="13.23" departLane="best" departPos="random" departSpeed="0" from="34241530#0" to="23241821#0"/>
  <flow id="motorcycle_34241530#0_198876042#0_00081489" type="motorcycle" begin="0" end="3600" vehsPerHour="77.50" departLane="best" departPos="random" departSpeed="0" from="34241530#0" to="198876042#0"/>
  <flow id="motorcycle_34241530#0_193253427#0_00081489" type="motorcycle" begin="0" end="3600" vehsPerHour="68.60" departLane="best" departPos="random" departSpeed="0" from="34241530#0" to="193253427#0"/>
  <flow id="motorcycle_34241530#0_198876043#2_00081489" type="motorcycle" begin="0" end="3600" vehsPerHour="63.40" departLane="best" departPos="random" departSpeed="0" from="34241530#0" to="198876043#2"/>
  <flow id="motorcycle_34241530#0_28231434_00081489" type="motorcycle" begin="0" end="3600" vehsPerHour="54.91" departLane="best" departPos="random" departSpeed="0" from="34241530#0" to="28231434"/>
  <flow id="motorcycle_34241530#0_23241821#0_00081489" type="motorcycle" begin="0" end="3600" vehsPerHour="48.85" departLane="best" departPos="random" departSpeed="0" from="34241530#0" to="23241821#0"/>
  <flow id="truck_34241530#0_198876042#0_00081489" type="truck" begin="0" end="3600" vehsPerHour="11.33" departLane="best" departPos="random" departSpeed="0" from="34241530#0" to="198876042#0"/>
</routes>
