<routes>
<vType id="car" vClass="passenger" accel="2.6" decel="4.5" sigma="0.5" length="5.0" maxSpeed="13.9"/>
<vType id="motorcycle" vClass="motorcycle" accel="3.0" decel="5.0" sigma="0.5" length="2.0" maxSpeed="14.0"/>
<vType id="truck" vClass="truck" accel="1.2" decel="3.5" sigma="0.5" length="12.0" maxSpeed="10.0"/>

  <flow id="car_222682222#1_193253427#0_000025d7" type="car" begin="0" end="3600" vehsPerHour="59.20" departLane="best" departPos="random" departSpeed="0" from="222682222#1" to="193253427#0"/>
  <flow id="car_222682222#1_198876043#0_000025d7" type="car" begin="0" end="3600" vehsPerHour="48.37" departLane="best" departPos="random" departSpeed="0" from="222682222#1" to="198876043#0"/>
  <flow id="car_222682222#1_28231434_000025d7" type="car" begin="0" end="3600" vehsPerHour="52.92" departLane="best" departPos="random" departSpeed="0" from="222682222#1" to="28231434"/>
  <flow id="car_222682222#1_23241821#0_000025d7" type="car" begin="0" end="3600" vehsPerHour="39.74" departLane="best" departPos="random" departSpeed="0" from="222682222#1" to="23241821#0"/>
  <flow id="car_222682222#1_198876042#0_000025d7" type="car" begin="0" end="3600" vehsPerHour="32.28" departLane="best" departPos="random" departSpeed="0" from="222682222#1" to="198876042#0"/>
  <flow id="motorcycle_222682222#1_193253427#0_000025d7" type="motorcycle" begin="0" end="3600" vehsPerHour="174.91" departLane="best" departPos="random" departSpeed="0" from="222682222#1" to="193253427#0"/>
  <flow id="motorcycle_222682222#1_198876043#0_000025d7" type="motorcycle" begin="0" end="3600" vehsPerHour="160.56" departLane="best" departPos="random" departSpeed="0" from="222682222#1" to="198876043#0"/>
  <flow id="motorcycle_222682222#1_28231434_000025d7" type="motorcycle" begin="0" end="3600" vehsPerHour="143.26" departLane="best" departPos="random" departSpeed="0" from="222682222#1" to="28231434"/>
  <flow id="motorcycle_222682222#1_23241821#0_000025d7" type="motorcycle" begin="0" end="3600" vehsPerHour="110.84" departLane="best" departPos="random" departSpeed="0" from="222682222#1" to="23241821#0"/>
  <flow id="motorcycle_222682222#1_198876042#0_000025d7" type="motorcycle" begin="0" end="3600" vehsPerHour="100.74" departLane="best" departPos="random" departSpeed="0" from="222682222#1" to="198876042#0"/>
  <flow id="car_193253433#2_198876043#0_000025d7" type="car" begin="0" end="3600" vehsPerHour="42.31" departLane="best" departPos="random" departSpeed="0" from="193253433#2" to="198876043#0"/>
  <flow id="car_193253433#2_28231434_000025d7" type="car" begin="0" end="3600" vehsPerHour="33.97" departLane="best" departPos="random" departSpeed="0" from="193253433#2" to="28231434"/>
  <flow id="car_193253433#2_23241821#0_000025d7" type="car" begin="0" end="3600" vehsPerHour="32.03" departLane="best" departPos="random" departSpeed="0" from="193253433#2" to="23241821#0"/>
  <flow id="car_193253433#2_198876042#0_000025d7" type="car" begin="0" end="3600" vehsPerHour="27.87" departLane="best" departPos="random" departSpeed="0" from="193253433#2" to="198876042#0"/>
  <flow id="car_193253433#2_193253427#0_000025d7" type="car" begin="0" end="3600" vehsPerHour="23.21" departLane="best" departPos="random" departSpeed="0" from="193253433#2" to="193253427#0"/>
  <flow id="motorcycle_193253433#2_198876043#0_000025d7" type="motorcycle" begin="0" end="3600" vehsPerHour="109.02" departLane="best" departPos="random" departSpeed="0" from="193253433#2" to="198876043#0"/>
  <flow id="motorcycle_193253433#2_28231434_000025d7" type="motorcycle" begin="0" end="3600" vehsPerHour="104.67" departLane="best" departPos="random" departSpeed="0" from="193253433#2" to="28231434"/>
  <flow id="motorcycle_193253433#2_23241821#0_000025d7" type="motorcycle" begin="0" end="3600" vehsPerHour="95.08" departLane="best" departPos="random" departSpeed="0" from="193253433#2" to="23241821#0"/>
  <flow id="motorcycle_193253433#2_198876042#0_000025d7" type="motorcycle" begin="0" end="3600" vehsPerHour="81.24" departLane="best" departPos="random" departSpeed="0" from="193253433#2" to="198876042#0"/>
  <flow id="motorcycle_193253433#2_193253427#0_000025d7" type="motorcycle" begin="0" end="3600" vehsPerHour="66.33" departLane="best" departPos="random" departSpeed="0" from="193253433#2" to="193253427#0"/>
  <flow id="car_198876045#1_28231434_000025d7" type="car" begin="0" end="3600" vehsPerHour="32.64" departLane="best" departPos="random" departSpeed="0" from="198876045#1" to="28231434"/>
  <flow id="car_198876045#1_23241821#0_000025d7" type="car" begin="0" end="3600" vehsPerHour="29.39" departLane="best" departPos="random" departSpeed="0" from="198876045#1" to="23241821#0"/>
  <flow id="car_198876045#1_198876042#0_000025d7" type="car" begin="0" end="3600" vehsPerHour="26.20" departLane="best" departPos="random" departSpeed="0" from="198876045#1" to="198876042#0"/>
  <flow id="car_198876045#1_193253427#0_000025d7" type="car" begin="0" end="3600" vehsPerHour="24.32" departLane="best" departPos="random" departSpeed="0" from="198876045#1" to="193253427#0"/>
  <flow id="car_198876045#1_198876043#2_000025d7" type="car" begin="0" end="3600" vehsPerHour="20.21" departLane="best" departPos="random" departSpeed="0" from="198876045#1" to="198876043#2"/>
  <flow id="motorcycle_198876045#1_28231434_000025d7" type="motorcycle" begin="0" end="3600" vehsPerHour="101.36" departLane="best" departPos="random" departSpeed="0" from="198876045#1" to="28231434"/>
  <flow id="motorcycle_198876045#1_23241821#0_000025d7" type="motorcycle" begin="0" end="3600" vehsPerHour="87.00" departLane="best" departPos="random" departSpeed="0" from="198876045#1" to="23241821#0"/>
  <flow id="motorcycle_198876045#1_198876042#0_000025d7" type="motorcycle" begin="0" end="3600" vehsPerHour="83.84" departLane="best" departPos="random" departSpeed="0" from="198876045#1" to="198876042#0"/>
  <flow id="motorcycle_198876045#1_193253427#0_000025d7" type="motorcycle" begin="0" end="3600" vehsPerHour="71.12" departLane="best" departPos="random" departSpeed="0" from="198876045#1" to="193253427#0"/>
  <flow id="motorcycle_198876045#1_198876043#2_000025d7" type="motorcycle" begin="0" end="3600" vehsPerHour="66.24" departLane="best" departPos="random" departSpeed="0" from="198876045#1" to="198876043#2"/>
  <flow id="car_-28231434_23241821#0_000025d7" type="car" begin="0" end="3600" vehsPerHour="24.21" departLane="best" departPos="random" departSpeed="0" from="-28231434" to="23241821#0"/>
  <flow id="car_-28231434_198876042#0_000025d7" type="car" begin="0" end="3600" vehsPerHour="19.66" departLane="best" departPos="random" departSpeed="0" from="-28231434" to="198876042#0"/>
  <flow id="car_-28231434_193253427#0_000025d7" type="car" begin="0" end="3600" vehsPerHour="16.73" departLane="best" departPos="random" departSpeed="0" from="-28231434" to="193253427#0"/>
  <flow id="car_-28231434_198876043#2_000025d7" type="car" begin="0" end="3600" vehsPerHour="17.62" departLane="best" departPos="random" departSpeed="0" from="-28231434" to="198876043#2"/>
  <flow id="car_-28231434_28231434_000025d7" type="car" begin="0" end="3600" vehsPerHour="13.00" departLane="best" departPos="random" departSpeed="0" from="-28231434" to="28231434"/>
  <flow id="motorcycle_-28231434_23241821#0_000025d7" type="motorcycle" begin="0" end="3600" vehsPerHour="66.32" departLane="best" departPos="random" departSpeed="0" from="-28231434" to="23241821#0"/>
  <flow id="motorcycle_-28231434_198876042#0_000025d7" type="motorcycle" begin="0" end="3600" vehsPerHour="62.32" departLane="best" departPos="random" departSpeed="0" from="-28231434" to="198876042#0"/>
  <flow id="motorcycle_-28231434_193253427#0_000025d7" type="motorcycle" begin="0" end="3600" vehsPerHour="52.02" departLane="best" departPos="random" departSpeed="0" from="-28231434" to="193253427#0"/>
  <flow id="motorcycle_-28231434_198876043#2_000025d7" type="motorcycle" begin="0" end="3600" vehsPerHour="44.89" departLane="best" departPos="random" departSpeed="0" from="-28231434" to="198876043#2"/>
  <flow id="motorcycle_-28231434_28231434_000025d7" type="motorcycle" begin="0" end="3600" vehsPerHour="40.69" departLane="best" departPos="random" departSpeed="0" from="-28231434" to="28231434"/>
  <flow id="car_-55029244#0_198876042#0_000025d7" type="car" begin="0" end="3600" vehsPerHour="27.69" departLane="best" departPos="random" departSpeed="0" from="-55029244#0" to="198876042#0"/>
  <flow id="car_-55029244#0_193253427#0_000025d7" type="car" begin="0" end="3600" vehsPerHour="24.53" departLane="best" departPos="random" departSpeed="0" from="-55029244#0" to="193253427#0"/>
  <flow id="car_-55029244#0_198876043#2_000025d7" type="car" begin="0" end="3600" vehsPerHour="20.99" departLane="best" departPos="random" departSpeed="0" from="-55029244#0" to="198876043#2"/>
  <flow id="car_-55029244#0_28231434_000025d7" type="car" begin="0" end="3600" vehsPerHour="17.10" departLane="best" departPos="random" departSpeed="0" from="-55029244#0" to="28231434"/>
  <flow id="car_-55029244#0_23241821#0_000025d7" type="car" begin="0" end="3600" vehsPerHour="13.13" departLane="best" departPos="random" departSpeed="0" from="-55029244#0" to="23241821#0"/>
  <flow id="motorcycle_-55029244#0_198876042#0_000025d7" type="motorcycle" begin="0" end="3600" vehsPerHour="81.40" departLane="best" departPos="random" departSpeed="0" from="-55029244#0" to="198876042#0"/>
  <flow id="motorcycle_-55029244#0_193253427#0_000025d7" type="motorcycle" begin="0" end="3600" vehsPerHour="64.28" departLane="best" departPos="random" departSpeed="0" from="-55029244#0" to="193253427#0"/>
  <flow id="motorcycle_-55029244#0_198876043#2_000025d7" type="motorcycle" begin="0" end="3600" vehsPerHour="59.15" departLane="best" departPos="random" departSpeed="0" from="-55029244#0" to="198876043#2"/>
  <flow id="motorcycle_-55029244#0_28231434_000025d7" type="motorcycle" begin="0" end="3600" vehsPerHour="51.63" departLane="best" departPos="random" departSpeed="0" from="-55029244#0" to="28231434"/>
  <flow id="motorcycle_-55029244#0_23241821#0_000025d7" type="motorcycle" begin="0" end="3600" vehsPerHour="44.85" departLane="best" departPos="random" departSpeed="0" from="-55029244#0" to="23241821#0"/>
  <flow id="car_34241530#0_198876042#0_000025d7" type="car" begin="0" end="3600" vehsPerHour="25.95" departLane="best" departPos="random" departSpeed="0" from="34241530#0" to="198876042#0"/>
  <flow id="car_34241530#0_193253427#0_000025d7" type="car" begin="0" end="3600" vehsPerHour="23.77" departLane="best" departPos="random" departSpeed="0" from="34241530#0" to="193253427#0"/>
  <flow id="car_34241530#0_198876043#2_000025d7" type="car" begin="0" end="3600" vehsPerHour="21.14" departLane="best" departPos="random" departSpeed="0" from="34241530#0" to="198876043#2"/>
  <flow id="car_34241530#0_28231434_000025d7" type="car" begin="0" end="3600" vehsPerHour="16.32" departLane="best" departPos="random" departSpeed="0" from="34241530#0" to="28231434"/>
  <flow id="car_34241530#0_23241821#0_000025d7" type="car" begin="0" end="3600" vehsPerHour="13.77" departLane="best" departPos="random" departSpeed="0" from="34241530#0" to="23241821#0"/>
  <flow id="motorcycle_34241530#0_198876042#0_000025d7" type="motorcycle" begin="0" end="3600" vehsPerHour="79.35" departLane="best" departPos="random" departSpeed="0" from="34241530#0" to="198876042#0"/>
  <flow id="motorcycle_34241530#0_193253427#0_000025d7" type="motorcycle" begin="0" end="3600" vehsPerHour="68.78" departLane="best" departPos="random" departSpeed="0" from="34241530#0" to="193253427#0"/>
  <flow id="motorcycle_34241530#0_198876043#2_000025d7" type="motorcycle" begin="0" end="3600" vehsPerHour="60.64" departLane="best" departPos="random" departSpeed="0" from="34241530#0" to="198876043#2"/>
  <flow id="motorcycle_34241530#0_28231434_000025d7" type="motorcycle" begin="0" end="3600" vehsPerHour="53.28" departLane="best" departPos="random" departSpeed="0" from="34241530#0" to="28231434"/>
  <flow id="motorcycle_34241530#0_23241821#0_000025d7" type="motorcycle" begin="0" end="3600" vehsPerHour="46.58" departLane="best" departPos="random" departSpeed="0" from="34241530#0" to="23241821#0"/>
  <flow id="truck_34241530#0_198876042#0_000025d7" type="truck" begin="0" end="3600" vehsPerHour="11.52" departLane="best" departPos="random" departSpeed="0" from="34241530#0" to="198876042#0"/>
</routes>
