<routes>
<vType id="car" vClass="passenger" accel="2.6" decel="4.5" sigma="0.5" length="5.0" maxSpeed="13.9"/>
<vType id="motorcycle" vClass="motorcycle" accel="3.0" decel="5.0" sigma="0.5" length="2.0" maxSpeed="14.0"/>
<vType id="truck" vClass="truck" accel="1.2" decel="3.5" sigma="0.5" length="12.0" maxSpeed="10.0"/>

  <flow id="car_222682222#1_193253427#0_00061ecc" type="car" begin="0" end="3600" vehsPerHour="61.32" departLane="best" departPos="random" departSpeed="0" from="222682222#1" to="193253427#0"/>
  <flow id="car_222682222#1_198876043#0_00061ecc" type="car" begin="0" end="3600" vehsPerHour="50.17" departLane="best" departPos="random" departSpeed="0" from="222682222#1" to="198876043#0"/>
  <flow id="car_222682222#1_28231434_00061ecc" type="car" begin="0" end="3600" vehsPerHour="49.23" departLane="best" departPos="random" departSpeed="0" from="222682222#1" to="28231434"/>
  <flow id="car_222682222#1_23241821#0_00061ecc" type="car" begin="0" end="3600" vehsPerHour="39.68" departLane="best" departPos="random" departSpeed="0" from="222682222#1" to="23241821#0"/>
  <flow id="car_222682222#1_198876042#0_00061ecc" type="car" begin="0" end="3600" vehsPerHour="33.92" departLane="best" departPos="random" departSpeed="0" from="222682222#1" to="198876042#0"/>
  <flow id="motorcycle_222682222#1_193253427#0_00061ecc" type="motorcycle" begin="0" end="3600" vehsPerHour="180.87" departLane="best" departPos="random" departSpeed="0" from="222682222#1" to="193253427#0"/>
  <flow id="motorcycle_222682222#1_198876043#0_00061ecc" type="motorcycle" begin="0" end="3600" vehsPerHour="155.73" departLane="best" departPos="random" departSpeed="0" from="222682222#1" to="198876043#0"/>
  <flow id="motorcycle_222682222#1_28231434_00061ecc" type="motorcycle" begin="0" end="3600" vehsPerHour="143.76" departLane="best" departPos="random" departSpeed="0" from="222682222#1" to="28231434"/>
  <flow id="motorcycle_222682222#1_23241821#0_00061ecc" type="motorcycle" begin="0" end="3600" vehsPerHour="120.25" departLane="best" departPos="random" departSpeed="0" from="222682222#1" to="23241821#0"/>
  <flow id="motorcycle_222682222#1_198876042#0_00061ecc" type="motorcycle" begin="0" end="3600" vehsPerHour="106.05" departLane="best" departPos="random" departSpeed="0" from="222682222#1" to="198876042#0"/>
  <flow id="car_193253433#2_198876043#0_00061ecc" type="car" begin="0" end="3600" vehsPerHour="39.86" departLane="best" departPos="random" departSpeed="0" from="193253433#2" to="198876043#0"/>
  <flow id="car_193253433#2_28231434_00061ecc" type="car" begin="0" end="3600" vehsPerHour="35.20" departLane="best" departPos="random" departSpeed="0" from="193253433#2" to="28231434"/>
  <flow id="car_193253433#2_23241821#0_00061ecc" type="car" begin="0" end="3600" vehsPerHour="32.68" departLane="best" departPos="random" departSpeed="0" from="193253433#2" to="23241821#0"/>
  <flow id="car_193253433#2_198876042#0_00061ecc" type="car" begin="0" end="3600" vehsPerHour="26.82" departLane="best" departPos="random" departSpeed="0" from="193253433#2" to="198876042#0"/>
  <flow id="car_193253433#2_193253427#0_00061ecc" type="car" begin="0" end="3600" vehsPerHour="24.72" departLane="best" departPos="random" departSpeed="0" from="193253433#2" to="193253427#0"/>
  <flow id="motorcycle_193253433#2_198876043#0_00061ecc" type="motorcycle" begin="0" end="3600" vehsPerHour="119.48" departLane="best" departPos="random" departSpeed="0" from="193253433#2" to="198876043#0"/>
  <flow id="motorcycle_193253433#2_28231434_00061ecc" type="motorcycle" begin="0" end="3600" vehsPerHour="103.72" departLane="best" departPos="random" departSpeed="0" from="193253433#2" to="28231434"/>
  <flow id="motorcycle_193253433#2_23241821#0_00061ecc" type="motorcycle" begin="0" end="3600" vehsPerHour="93.84" departLane="best" departPos="random" departSpeed="0" from="193253433#2" to="23241821#0"/>
  <flow id="motorcycle_193253433#2_198876042#0_00061ecc" type="motorcycle" begin="0" end="3600" vehsPerHour="80.25" departLane="best" departPos="random" departSpeed="0" from="193253433#2" to="198876042#0"/>
  <flow id="motorcycle_193253433#2_193253427#0_00061ecc" type="motorcycle" begin="0" end="3600" vehsPerHour="67.88" departLane="best" departPos="random" departSpeed="0" from="193253433#2" to="193253427#0"/>
  <flow id="car_198876045#1_28231434_00061ecc" type="car" begin="0" end="3600" vehsPerHour="34.20" departLane="best" departPos="random" departSpeed="0" from="198876045#1" to="28231434"/>
  <flow id="car_198876045#1_23241821#0_00061ecc" type="car" begin="0" end="3600" vehsPerHour="30.89" departLane="best" departPos="random" departSpeed="0" from="198876045#1" to="23241821#0"/>
  <flow id="car_198876045#1_198876042#0_00061ecc" type="car" begin="0" end="3600" vehsPerHour="27.79" departLane="best" departPos="random" departSpeed="0" from="198876045#1" to="198876042#0"/>
  <flow id="car_198876045#1_193253427#0_00061ecc" type="car" begin="0" end="3600" vehsPerHour="22.95" departLane="best" departPos="random" departSpeed="0" from="198876045#1" to="193253427#0"/>
  <flow id="car_198876045#1_198876043#2_00061ecc" type="car" begin="0" end="3600" vehsPerHour="20.73" departLane="best" departPos="random" departSpeed="0" from="198876045#1" to="198876043#2"/>
  <flow id="motorcycle_198876045#1_28231434_00061ecc" type="motorcycle" begin="0" end="3600" vehsPerHour="97.48" departLane="best" departPos="random" departSpeed="0" from="198876045#1" to="28231434"/>
  <flow id="motorcycle_198876045#1_23241821#0_00061ecc" type="motorcycle" begin="0" end="3600" vehsPerHour="87.05" departLane="best" departPos="random" departSpeed="0" from="198876045#1" to="23241821#0"/>
  <flow id="motorcycle_198876045#1_198876042#0_00061ecc" type="motorcycle" begin="0" end="3600" vehsPerHour="82.33" departLane="best" departPos="random" departSpeed="0" from="198876045#1" to="198876042#0"/>
  <flow id="motorcycle_198876045#1_193253427#0_00061ecc" type="motorcycle" begin="0" end="3600" vehsPerHour="71.04" departLane="best" departPos="random" departSpeed="0" from="198876045#1" to="193253427#0"/>
  <flow id="motorcycle_198876045#1_198876043#2_00061ecc" type="motorcycle" begin="0" end="3600" vehsPerHour="68.36" departLane="best" departPos="random" departSpeed="0" from="198876045#1" to="198876043#2"/>
  <flow id="car_-28231434_23241821#0_00061ecc" type="car" begin="0" end="3600" vehsPerHour="24.00" departLane="best" departPos="random" departSpeed="0" from="-28231434" to="23241821#0"/>
  <flow id="car_-28231434_198876042#0_00061ecc" type="car" begin="0" end="3600" vehsPerHour="20.88" departLane="best" departPos="random" departSpeed="0" from="-28231434" to="198876042#0"/>
  <flow id="car_-28231434_193253427#0_00061ecc" type="car" begin="0" end="3600" vehsPerHour="17.05" departLane="best" departPos="random" departSpeed="0" from="-28231434" to="193253427#0"/>
  <flow id="car_-28231434_198876043#2_00061ecc" type="car" begin="0" end="3600" vehsPerHour="17.20" departLane="best" departPos="random" departSpeed="0" from="-28231434" to="198876043#2"/>
  <flow id="car_-28231434_28231434_00061ecc" type="car" begin="0" end="3600" vehsPerHour="13.20" departLane="best" departPos="random" departSpeed="0" from="-28231434" to="28231434"/>
  <flow id="motorcycle_-28231434_23241821#0_00061ecc" type="motorcycle" begin="0" end="3600" vehsPerHour="68.38" departLane="best" departPos="random" departSpeed="0" from="-28231434" to="23241821#0"/>
  <flow id="motorcycle_-28231434_198876042#0_00061ecc" type="motorcycle" begin="0" end="3600" vehsPerHour="61.46" departLane="best" departPos="random" departSpeed="0" from="-28231434" to="198876042#0"/>
  <flow id="motorcycle_-28231434_193253427#0_00061ecc" type="motorcycle" begin="0" end="3600" vehsPerHour="53.86" departLane="best" departPos="random" departSpeed="0" from="-28231434" to="193253427#0"/>
  <flow id="motorcycle_-28231434_198876043#2_00061ecc" type="motorcycle" begin="0" end="3600" vehsPerHour="46.21" departLane="best" departPos="random" departSpeed="0" from="-28231434" to="198876043#2"/>
  <flow id="motorcycle_-28231434_28231434_00061ecc" type="motorcycle" begin="0" end="3600" vehsPerHour="39.04" departLane="best" departPos="random" departSpeed="0" from="-28231434" to="28231434"/>
  <flow id="car_-55029244#0_198876042#0_00061ecc" type="car" begin="0" end="3600" vehsPerHour="26.15" departLane="best" departPos="random" departSpeed="0" from="-55029244#0" to="198876042#0"/>
  <flow id="car_-55029244#0_193253427#0_00061ecc" type="car" begin="0" end="3600" vehsPerHour="24.36" departLane="best" departPos="random" departSpeed="0" from="-55029244#0" to="193253427#0"/>
  <flow id="car_-55029244#0_198876043#2_00061ecc" type="car" begin="0" end="3600" vehsPerHour="20.08" departLane="best" departPos="random" departSpeed="0" from="-55029244#0" to="198876043#2"/>
  <flow id="car_-55029244#0_28231434_00061ecc" type="car" begin="0" end="3600" vehsPerHour="16.87" departLane="best" departPos="random" departSpeed="0" from="-55029244#0" to="28231434"/>
  <flow id="car_-55029244#0_23241821#0_00061ecc" type="car" begin="0" end="3600" vehsPerHour="14.00" departLane="best" departPos="random" departSpeed="0" from="-55029244#0" to="23241821#0"/>
  <flow id="motorcycle_-55029244#0_198876042#0_00061ecc" type="motorcycle" begin="0" end="3600" vehsPerHour="83.65" departLane="best" departPos="random" departSpeed="0" from="-55029244#0" to="198876042#0"/>
  <flow id="motorcycle_-55029244#0_193253427#0_00061ecc" type="motorcycle" begin="0" end="3600" vehsPerHour="66.28" departLane="best" departPos="random" departSpeed="0" from="-55029244#0" to="193253427#0"/>
  <flow id="motorcycle_-55029244#0_198876043#2_00061ecc" type="motorcycle" begin="0" end="3600" vehsPerHour="62.16" departLane="best" departPos="random" departSpeed="0" from="-55029244#0" to="198876043#2"/>
  <flow id="motorcycle_-55029244#0_28231434_00061ecc" type="motorcycle" begin="0" end="3600" vehsPerHour="54.40" departLane="best" departPos="random" departSpeed="0" from="-55029244#0" to="28231434"/>
  <flow id="motorcycle_-55029244#0_23241821#0_00061ecc" type="motorcycle" begin="0" end="3600" vehsPerHour="46.66" departLane="best" departPos="random" departSpeed="0" from="-55029244#0" to="23241821#0"/>
  <flow id="car_34241530#0_198876042#0_00061ecc" type="car" begin="0" end="3600" vehsPerHour="27.25" departLane="best" departPos="random" departSpeed="0" from="34241530#0" to="198876042#0"/>
  <flow id="car_34241530#0_193253427#0_00061ecc" type="car" begin="0" end="3600" vehsPerHour="24.34" departLane="best" departPos="random" departSpeed="0" from="34241530#0" to="193253427#0"/>
  <flow id="car_34241530#0_198876043#2_00061ecc" type="car" begin="0" end="3600" vehsPerHour="20.63" departLane="best" departPos="random" departSpeed="0" from="34241530#0" to="198876043#2"/>
  <flow id="car_34241530#0_28231434_00061ecc" type="car" begin="0" end="3600" vehsPerHour="17.44" departLane="best" departPos="random" departSpeed="0" from="34241530#0" to="28231434"/>
  <flow id="car_34241530#0_23241821#0_00061ecc" type="car" begin="0" end="3600" vehsPerHour="13.62" departLane="best" departPos="random" departSpeed="0" from="34241530#0" to="23241821#0"/>
  <flow id="motorcycle_34241530#0_198876042#0_00061ecc" type="motorcycle" begin="0" end="3600" vehsPerHour="81.83" departLane="best" departPos="random" departSpeed="0" from="34241530#0" to="198876042#0"/>
  <flow id="motorcycle_34241530#0_193253427#0_00061ecc" type="motorcycle" begin="0" end="3600" vehsPerHour="70.14" departLane="best" departPos="random" departSpeed="0" from="34241530#0" to="193253427#0"/>
  <flow id="motorcycle_34241530#0_198876043#2_00061ecc" type="motorcycle" begin="0" end="3600" vehsPerHour="57.72" departLane="best" departPos="random" departSpeed="0" from="34241530#0" to="198876043#2"/>
  <flow id="motorcycle_34241530#0_28231434_00061ecc" type="motorcycle" begin="0" end="3600" vehsPerHour="54.52" departLane="best" departPos="random" departSpeed="0" from="34241530#0" to="28231434"/>
  <flow id="motorcycle_34241530#0_23241821#0_00061ecc" type="motorcycle" begin="0" end="3600" vehsPerHour="49.13" departLane="best" departPos="random" departSpeed="0" from="34241530#0" to="23241821#0"/>
  <flow id="truck_34241530#0_198876042#0_00061ecc" type="truck" begin="0" end="3600" vehsPerHour="11.28" departLane="best" departPos="random" departSpeed="0" from="34241530#0" to="198876042#0"/>
</routes>
