<routes>
<vType id="car" vClass="passenger" accel="2.6" decel="4.5" sigma="0.5" length="5.0" maxSpeed="13.9"/>
<vType id="motorcycle" vClass="motorcycle" accel="3.0" decel="5.0" sigma="0.5" length="2.0" maxSpeed="14.0"/>
<vType id="truck" vClass="truck" accel="1.2" decel="3.5" sigma="0.5" length="12.0" maxSpeed="10.0"/>

  <flow id="car_222682222#1_193253427#0_000043fd" type="car" begin="0" end="3600" vehsPerHour="60.27" departLane="best" departPos="random" departSpeed="0" from="222682222#1" to="193253427#0"/>
  <flow id="car_222682222#1_198876043#0_000043fd" type="car" begin="0" end="3600" vehsPerHour="51.25" departLane="best" departPos="random" departSpeed="0" from="222682222#1" to="198876043#0"/>
  <flow id="car_222682222#1_28231434_000043fd" type="car" begin="0" end="3600" vehsPerHour="50.75" departLane="best" departPos="random" departSpeed="0" from="222682222#1" to="28231434"/>
  <flow id="car_222682222#1_23241821#0_000043fd" type="car" begin="0" end="3600" vehsPerHour="38.54" departLane="best" departPos="random" departSpeed="0" from="222682222#1" to="23241821#0"/>
  <flow id="car_222682222#1_198876042#0_000043fd" type="car" begin="0" end="3600" vehsPerHour="33.54" departLane="best" departPos="random" departSpeed="0" from="222682222#1" to="198876042#0"/>
  <flow id="motorcycle_222682222#1_193253427#0_000043fd" type="motorcycle" begin="0" end="3600" vehsPerHour="183.37" departLane="best" departPos="random" departSpeed="0" from="222682222#1" to="193253427#0"/>
  <flow id="motorcycle_222682222#1_198876043#0_000043fd" type="motorcycle" begin="0" end="3600" vehsPerHour="154.77" departLane="best" departPos="random" departSpeed="0" from="222682222#1" to="198876043#0"/>
  <flow id="motorcycle_222682222#1_28231434_000043fd" type="motorcycle" begin="0" end="3600" vehsPerHour="140.66" departLane="best" departPos="random" departSpeed="0" from="222682222#1" to="28231434"/>
  <flow id="motorcycle_222682222#1_23241821#0_000043fd" type="motorcycle" begin="0" end="3600" vehsPerHour="120.18" departLane="best" departPos="random" departSpeed="0" from="222682222#1" to="23241821#0"/>
  <flow id="motorcycle_222682222#1_198876042#0_000043fd" type="motorcycle" begin="0" end="3600" vehsPerHour="102.51" departLane="best" departPos="random" departSpeed="0" from="222682222#1" to="198876042#0"/>
  <flow id="car_193253433#2_198876043#0_000043fd" type="car" begin="0" end="3600" vehsPerHour="41.54" departLane="best" departPos="random" departSpeed="0" from="193253433#2" to="198876043#0"/>
  <flow id="car_193253433#2_28231434_000043fd" type="car" begin="0" end="3600" vehsPerHour="35.33" departLane="best" departPos="random" departSpeed="0" from="193253433#2" to="28231434"/>
  <flow id="car_193253433#2_23241821#0_000043fd" type="car" begin="0" end="3600" vehsPerHour="33.81" departLane="best" departPos="random" departSpeed="0" from="193253433#2" to="23241821#0"/>
  <flow id="car_193253433#2_198876042#0_000043fd" type="car" begin="0" end="3600" vehsPerHour="26.45" departLane="best" departPos="random" departSpeed="0" from="193253433#2" to="198876042#0"/>
  <flow id="car_193253433#2_193253427#0_000043fd" type="car" begin="0" end="3600" vehsPerHour="23.25" departLane="best" departPos="random" departSpeed="0" from="193253433#2" to="193253427#0"/>
  <flow id="motorcycle_193253433#2_198876043#0_000043fd" type="motorcycle" begin="0" end="3600" vehsPerHour="119.39" departLane="best" departPos="random" departSpeed="0" from="193253433#2" to="198876043#0"/>
  <flow id="motorcycle_193253433#2_28231434_000043fd" type="motorcycle" begin="0" end="3600" vehsPerHour="101.13" departLane="best" departPos="random" departSpeed="0" from="193253433#2" to="28231434"/>
  <flow id="motorcycle_193253433#2_23241821#0_000043fd" type="motorcycle" begin="0" end="3600" vehsPerHour="91.34" departLane="best" departPos="random" departSpeed="0" from="193253433#2" to="23241821#0"/>
  <flow id="motorcycle_193253433#2_198876042#0_000043fd" type="motorcycle" begin="0" end="3600" vehsPerHour="84.20" departLane="best" departPos="random" departSpeed="0" from="193253433#2" to="198876042#0"/>
  <flow id="motorcycle_193253433#2_193253427#0_000043fd" type="motorcycle" begin="0" end="3600" vehsPerHour="68.31" departLane="best" departPos="random" departSpeed="0" from="193253433#2" to="193253427#0"/>
  <flow id="car_198876045#1_28231434_000043fd" type="car" begin="0" end="3600" vehsPerHour="34.06" departLane="best" departPos="random" departSpeed="0" from="198876045#1" to="28231434"/>
  <flow id="car_198876045#1_23241821#0_000043fd" type="car" begin="0" end="3600" vehsPerHour="31.69" departLane="best" departPos="random" departSpeed="0" from="198876045#1" to="23241821#0"/>
  <flow id="car_198876045#1_198876042#0_000043fd" type="car" begin="0" end="3600" vehsPerHour="27.23" departLane="best" departPos="random" departSpeed="0" from="198876045#1" to="198876042#0"/>
  <flow id="car_198876045#1_193253427#0_000043fd" type="car" begin="0" end="3600" vehsPerHour="23.69" departLane="best" departPos="random" departSpeed="0" from="198876045#1" to="193253427#0"/>
  <flow id="car_198876045#1_198876043#2_000043fd" type="car" begin="0" end="3600" vehsPerHour="19.80" departLane="best" departPos="random" departSpeed="0" from="198876045#1" to="198876043#2"/>
  <flow id="motorcycle_198876045#1_28231434_000043fd" type="motorcycle" begin="0" end="3600" vehsPerHour="100.96" departLane="best" departPos="random" departSpeed="0" from="198876045#1" to="28231434"/>
  <flow id="motorcycle_198876045#1_23241821#0_000043fd" type="motorcycle" begin="0" end="3600" vehsPerHour="84.17" departLane="best" departPos="random" departSpeed="0" from="198876045#1" to="23241821#0"/>
  <flow id="motorcycle_198876045#1_198876042#0_000043fd" type="motorcycle" begin="0" end="3600" vehsPerHour="83.89" departLane="best" departPos="random" departSpeed="0" from="198876045#1" to="198876042#0"/>
  <flow id="motorcycle_198876045#1_193253427#0_000043fd" type="motorcycle" begin="0" end="3600" vehsPerHour="71.47" departLane="best" departPos="random" departSpeed="0" from="198876045#1" to="193253427#0"/>
  <flow id="motorcycle_198876045#1_198876043#2_000043fd" type="motorcycle" begin="0" end="3600" vehsPerHour="64.88" departLane="best" departPos="random" departSpeed="0" from="198876045#1" to="198876043#2"/>
  <flow id="car_-28231434_23241821#0_000043fd" type="car" begin="0" end="3600" vehsPerHour="23.23" departLane="best" departPos="random" departSpeed="0" from="-28231434" to="23241821#0"/>
  <flow id="car_-28231434_198876042#0_000043fd" type="car" begin="0" end="3600" vehsPerHour="19.89" departLane="best" departPos="random" departSpeed="0" from="-28231434" to="198876042#0"/>
  <flow id="car_-28231434_193253427#0_000043fd" type="car" begin="0" end="3600" vehsPerHour="16.27" departLane="best" departPos="random" departSpeed="0" from="-28231434" to="193253427#0"/>
  <flow id="car_-28231434_198876043#2_000043fd" type="car" begin="0" end="3600" vehsPerHour="16.02" departLane="best" departPos="random" departSpeed="0" from="-28231434" to="198876043#2"/>
  <flow id="car_-28231434_28231434_000043fd" type="car" begin="0" end="3600" vehsPerHour="13.41" departLane="best" departPos="random" departSpeed="0" from="-28231434" to="28231434"/>
  <flow id="motorcycle_-28231434_23241821#0_000043fd" type="motorcycle" begin="0" end="3600" vehsPerHour="67.40" departLane="best" departPos="random" departSpeed="0" from="-28231434" to="23241821#0"/>
  <flow id="motorcycle_-28231434_198876042#0_000043fd" type="motorcycle" begin="0" end="3600" vehsPerHour="62.74" departLane="best" departPos="random" departSpeed="0" from="-28231434" to="198876042#0"/>
  <flow id="motorcycle_-28231434_193253427#0_000043fd" type="motorcycle" begin="0" end="3600" vehsPerHour="55.78" departLane="best" departPos="random" departSpeed="0" from="-28231434" to="193253427#0"/>
  <flow id="motorcycle_-28231434_198876043#2_000043fd" type="motorcycle" begin="0" end="3600" vehsPerHour="46.91" departLane="best" departPos="random" departSpeed="0" from="-28231434" to="198876043#2"/>
  <flow id="motorcycle_-28231434_28231434_000043fd" type="motorcycle" begin="0" end="3600" vehsPerHour="41.98" departLane="best" departPos="random" departSpeed="0" from="-28231434" to="28231434"/>
  <flow id="car_-55029244#0_198876042#0_000043fd" type="car" begin="0" end="3600" vehsPerHour="25.72" departLane="best" departPos="random" departSpeed="0" from="-55029244#0" to="198876042#0"/>
  <flow id="car_-55029244#0_193253427#0_000043fd" type="car" begin="0" end="3600" vehsPerHour="24.62" departLane="best" departPos="random" departSpeed="0" from="-55029244#0" to="193253427#0"/>
  <flow id="car_-55029244#0_198876043#2_000043fd" type="car" begin="0" end="3600" vehsPerHour="19.22" departLane="best" departPos="random" departSpeed="0" from="-55029244#0" to="198876043#2"/>
  <flow id="car_-55029244#0_28231434_000043fd" type="car" begin="0" end="3600" vehsPerHour="16.39" departLane="best" departPos="random" departSpeed="0" from="-55029244#0" to="28231434"/>
  <flow id="car_-55029244#0_23241821#0_000043fd" type="car" begin="0" end="3600" vehsPerHour="13.62" departLane="best" departPos="random" departSpeed="0" from="-55029244#0" to="23241821#0"/>
  <flow id="motorcycle_-55029244#0_198876042#0_000043fd" type="motorcycle" begin="0" end="3600" vehsPerHour="80.66" departLane="best" departPos="random" departSpeed="0" from="-55029244#0" to="198876042#0"/>
  <flow id="motorcycle_-55029244#0_193253427#0_000043fd" type="motorcycle" begin="0" end="3600" vehsPerHour="69.36" departLane="best" departPos="random" departSpeed="0" from="-55029244#0" to="193253427#0"/>
  <flow id="motorcycle_-55029244#0_198876043#2_000043fd" type="motorcycle" begin="0" end="3600" vehsPerHour="62.49" departLane="best" departPos="random" departSpeed="0" from="-55029244#0" to="198876043#2"/>
  <flow id="motorcycle_-55029244#0_28231434_000043fd" type="motorcycle" begin="0" end="3600" vehsPerHour="56.13" departLane="best" departPos="random" departSpeed="0" from="-55029244#0" to="28231434"/>
  <flow id="motorcycle_-55029244#0_23241821#0_000043fd" type="motorcycle" begin="0" end="3600" vehsPerHour="49.33" departLane="best" departPos="random" departSpeed="0" from="-55029244#0" to="23241821#0"/>
  <flow id="car_34241530#0_198876042#0_000043fd" type="car" begin="0" end="3600" vehsPerHour="27.14" departLane="best" departPos="random" departSpeed="0" from="34241530#0" to="198876042#0"/>
  <flow id="car_34241530#0_193253427#0_000043fd" type="car" begin="0" end="3600" vehsPerHour="23.55" departLane="best" departPos="random" departSpeed="0" from="34241530#0" to="193253427#0"/>
  <flow id="car_34241530#0_198876043#2_000043fd" type="car" begin="0" end="3600" vehsPerHour="20.78" departLane="best" departPos="random" departSpeed="0" from="34241530#0" to="198876043#2"/>
  <flow id="car_34241530#0_28231434_000043fd" type="car" begin="0" end="3600" vehsPerHour="16.06" departLane="best" departPos="random" departSpeed="0" from="34241530#0" to="28231434"/>
  <flow id="car_34241530#0_23241821#0_000043fd" type="car" begin="0" end="3600" vehsPerHour="14.02" departLane="best" departPos="random" departSpeed="0" from="34241530#0" to="23241821#0"/>
  <flow id="motorcycle_34241530#0_198876042#0_000043fd" type="motorcycle" begin="0" end="3600" vehsPerHour="77.20" departLane="best" departPos="random" departSpeed="0" from="34241530#0" to="198876042#0"/>
  <flow id="motorcycle_34241530#0_193253427#0_000043fd" type="motorcycle" begin="0" end="3600" vehsPerHour="65.03" departLane="best" departPos="random" departSpeed="0" from="34241530#0" to="193253427#0"/>
  <flow id="motorcycle_34241530#0_198876043#2_000043fd" type="motorcycle" begin="0" end="3600" vehsPerHour="60.25" departLane="best" departPos="random" departSpeed="0" from="34241530#0" to="198876043#2"/>
  <flow id="motorcycle_34241530#0_28231434_000043fd" type="motorcycle" begin="0" end="3600" vehsPerHour="52.63" departLane="best" departPos="random" departSpeed="0" from="34241530#0" to="28231434"/>
  <flow id="motorcycle_34241530#0_23241821#0_000043fd" type="motorcycle" begin="0" end="3600" vehsPerHour="48.61" departLane="best" departPos="random" departSpeed="0" from="34241530#0" to="23241821#0"/>
  <flow id="truck_34241530#0_198876042#0_000043fd" type="truck" begin="0" end="3600" vehsPerHour="11.82" departLane="best" departPos="random" departSpeed="0" from="34241530#0" to="198876042#0"/>
</routes>
