<routes>
<vType id="car" vClass="passenger" accel="2.6" decel="4.5" sigma="0.5" length="5.0" maxSpeed="13.9"/>
<vType id="motorcycle" vClass="motorcycle" accel="3.0" decel="5.0" sigma="0.5" length="2.0" maxSpeed="14.0"/>
<vType id="truck" vClass="truck" accel="1.2" decel="3.5" sigma="0.5" length="12.0" maxSpeed="10.0"/>

  <flow id="car_222682222#1_193253427#0_00013cf4" type="car" begin="0" end="3600" vehsPerHour="57.97" departLane="best" departPos="random" departSpeed="0" from="222682222#1" to="193253427#0"/>
  <flow id="car_222682222#1_198876043#0_00013cf4" type="car" begin="0" end="3600" vehsPerHour="53.02" departLane="best" departPos="random" departSpeed="0" from="222682222#1" to="198876043#0"/>
  <flow id="car_222682222#1_28231434_00013cf4" type="car" begin="0" end="3600" vehsPerHour="48.03" departLane="best" departPos="random" departSpeed="0" from="222682222#1" to="28231434"/>
  <flow id="car_222682222#1_23241821#0_00013cf4" type="car" begin="0" end="3600" vehsPerHour="41.94" departLane="best" departPos="random" departSpeed="0" from="222682222#1" to="23241821#0"/>
  <flow id="car_222682222#1_198876042#0_00013cf4" type="car" begin="0" end="3600" vehsPerHour="33.24" departLane="best" departPos="random" departSpeed="0" from="222682222#1" to="198876042#0"/>
  <flow id="motorcycle_222682222#1_193253427#0_00013cf4" type="motorcycle" begin="0" end="3600" vehsPerHour="181.52" departLane="best" departPos="random" departSpeed="0" from="222682222#1" to="193253427#0"/>
  <flow id="motorcycle_222682222#1_198876043#0_00013cf4" type="motorcycle" begin="0" end="3600" vehsPerHour="149.64" departLane="best" departPos="random" departSpeed="0" from="222682222#1" to="198876043#0"/>
  <flow id="motorcycle_222682222#1_28231434_00013cf4" type="motorcycle" begin="0" end="3600" vehsPerHour="140.11" departLane="best" departPos="random" departSpeed="0" from="222682222#1" to="28231434"/>
  <flow id="motorcycle_222682222#1_23241821#0_00013cf4" type="motorcycle" begin="0" end="3600" vehsPerHour="109.65" departLane="best" departPos="random" departSpeed="0" from="222682222#1" to="23241821#0"/>
  <flow id="motorcycle_222682222#1_198876042#0_00013cf4" type="motorcycle" begin="0" end="3600" vehsPerHour="104.27" departLane="best" departPos="random" departSpeed="0" from="222682222#1" to="198876042#0"/>
  <flow id="car_193253433#2_198876043#0_00013cf4" type="car" begin="0" end="3600" vehsPerHour="39.33" departLane="best" departPos="random" departSpeed="0" from="193253433#2" to="198876043#0"/>
  <flow id="car_193253433#2_28231434_00013cf4" type="car" begin="0" end="3600" vehsPerHour="34.93" departLane="best" departPos="random" departSpeed="0" from="193253433#2" to="28231434"/>
  <flow id="car_193253433#2_23241821#0_00013cf4" type="car" begin="0" end="3600" vehsPerHour="33.55" departLane="best" departPos="random" departSpeed="0" from="193253433#2" to="23241821#0"/>
  <flow id="car_193253433#2_198876042#0_00013cf4" type="car" begin="0" end="3600" vehsPerHour="26.92" departLane="best" departPos="random" departSpeed="0" from="193253433#2" to="198876042#0"/>
  <flow id="car_193253433#2_193253427#0_00013cf4" type="car" begin="0" end="3600" vehsPerHour="23.83" departLane="best" departPos="random" departSpeed="0" from="193253433#2" to="193253427#0"/>
  <flow id="motorcycle_193253433#2_198876043#0_00013cf4" type="motorcycle" begin="0" end="3600" vehsPerHour="118.38" departLane="best" departPos="random" departSpeed="0" from="193253433#2" to="198876043#0"/>
  <flow id="motorcycle_193253433#2_28231434_00013cf4" type="motorcycle" begin="0" end="3600" vehsPerHour="96.19" departLane="best" departPos="random" departSpeed="0" from="193253433#2" to="28231434"/>
  <flow id="motorcycle_193253433#2_23241821#0_00013cf4" type="motorcycle" begin="0" end="3600" vehsPerHour="96.72" departLane="best" departPos="random" departSpeed="0" from="193253433#2" to="23241821#0"/>
  <flow id="motorcycle_193253433#2_198876042#0_00013cf4" type="motorcycle" begin="0" end="3600" vehsPerHour="80.88" departLane="best" departPos="random" departSpeed="0" from="193253433#2" to="198876042#0"/>
  <flow id="motorcycle_193253433#2_193253427#0_00013cf4" type="motorcycle" begin="0" end="3600" vehsPerHour="67.76" departLane="best" departPos="random" departSpeed="0" from="193253433#2" to="193253427#0"/>
  <flow id="car_198876045#1_28231434_00013cf4" type="car" begin="0" end="3600" vehsPerHour="33.34" departLane="best" departPos="random" departSpeed="0" from="198876045#1" to="28231434"/>
  <flow id="car_198876045#1_23241821#0_00013cf4" type="car" begin="0" end="3600" vehsPerHour="30.41" departLane="best" departPos="random" departSpeed="0" from="198876045#1" to="23241821#0"/>
  <flow id="car_198876045#1_198876042#0_00013cf4" type="car" begin="0" end="3600" vehsPerHour="26.90" departLane="best" departPos="random" departSpeed="0" from="198876045#1" to="198876042#0"/>
  <flow id="car_198876045#1_193253427#0_00013cf4" type="car" begin="0" end="3600" vehsPerHour="22.74" departLane="best" departPos="random" departSpeed="0" from="198876045#1" to="193253427#0"/>
  <flow id="car_198876045#1_198876043#2_00013cf4" type="car" begin="0" end="3600" vehsPerHour="20.39" departLane="best" departPos="random" departSpeed="0" from="198876045#1" to="198876043#2"/>
  <flow id="motorcycle_198876045#1_28231434_00013cf4" type="motorcycle" begin="0" end="3600" vehsPerHour="100.79" departLane="best" departPos="random" departSpeed="0" from="198876045#1" to="28231434"/>
  <flow id="motorcycle_198876045#1_23241821#0_00013cf4" type="motorcycle" begin="0" end="3600" vehsPerHour="86.92" departLane="best" departPos="random" departSpeed="0" from="198876045#1" to="23241821#0"/>
  <flow id="motorcycle_198876045#1_198876042#0_00013cf4" type="motorcycle" begin="0" end="3600" vehsPerHour="83.76" departLane="best" departPos="random" departSpeed="0" from="198876045#1" to="198876042#0"/>
  <flow id="motorcycle_198876045#1_193253427#0_00013cf4" type="motorcycle" begin="0" end="3600" vehsPerHour="72.23" departLane="best" departPos="random" departSpeed="0" from="198876045#1" to="193253427#0"/>
  <flow id="motorcycle_198876045#1_198876043#2_00013cf4" type="motorcycle" begin="0" end="3600" vehsPerHour="66.95" departLane="best" departPos="random" departSpeed="0" from="198876045#1" to="198876043#2"/>
  <flow id="car_-28231434_23241821#0_00013cf4" type="car" begin="0" end="3600" vehsPerHour="23.78" departLane="best" departPos="random" departSpeed="0" from="-28231434" to="23241821#0"/>
  <flow id="car_-28231434_198876042#0_00013cf4" type="car" begin="0" end="3600" vehsPerHour="20.59" departLane="best" departPos="random" departSpeed="0" from="-28231434" to="198876042#0"/>
  <flow id="car_-28231434_193253427#0_00013cf4" type="car" begin="0" end="3600" vehsPerHour="16.13" departLane="best" departPos="random" departSpeed="0" from="-28231434" to="193253427#0"/>
  <flow id="car_-28231434_198876043#2_00013cf4" type="car" begin="0" end="3600" vehsPerHour="17.40" departLane="best" departPos="random" departSpeed="0" from="-28231434" to="198876043#2"/>
  <flow id="car_-28231434_28231434_00013cf4" type="car" begin="0" end="3600" vehsPerHour="12.92" departLane="best" departPos="random" departSpeed="0" from="-28231434" to="28231434"/>
  <flow id="motorcycle_-28231434_23241821#0_00013cf4" type="motorcycle" begin="0" end="3600" vehsPerHour="65.27" departLane="best" departPos="random" departSpeed="0" from="-28231434" to="23241821#0"/>
  <flow id="motorcycle_-28231434_198876042#0_00013cf4" type="motorcycle" begin="0" end="3600" vehsPerHour="60.10" departLane="best" departPos="random" departSpeed="0" from="-28231434" to="198876042#0"/>
  <flow id="motorcycle_-28231434_193253427#0_00013cf4" type="motorcycle" begin="0" end="3600" vehsPerHour="56.41" departLane="best" departPos="random" departSpeed="0" from="-28231434" to="193253427#0"/>
  <flow id="motorcycle_-28231434_198876043#2_00013cf4" type="motorcycle" begin="0" end="3600" vehsPerHour="47.90" departLane="best" departPos="random" departSpeed="0" from="-28231434" to="198876043#2"/>
  <flow id="motorcycle_-28231434_28231434_00013cf4" type="motorcycle" begin="0" end="3600" vehsPerHour="41.25" departLane="best" departPos="random" departSpeed="0" from="-28231434" to="28231434"/>
  <flow id="car_-55029244#0_198876042#0_00013cf4" type="car" begin="0" end="3600" vehsPerHour="27.67" departLane="best" departPos="random" departSpeed="0" from="-55029244#0" to="198876042#0"/>
  <flow id="car_-55029244#0_193253427#0_00013cf4" type="car" begin="0" end="3600" vehsPerHour="24.28" departLane="best" departPos="random" departSpeed="0" from="-55029244#0" to="193253427#0"/>
  <flow id="car_-55029244#0_198876043#2_00013cf4" type="car" begin="0" end="3600" vehsPerHour="20.01" departLane="best" departPos="random" departSpeed="0" from="-55029244#0" to="198876043#2"/>
  <flow id="car_-55029244#0_28231434_00013cf4" type="car" begin="0" end="3600" vehsPerHour="17.20" departLane="best" departPos="random" departSpeed="0" from="-55029244#0" to="28231434"/>
  <flow id="car_-55029244#0_23241821#0_00013cf4" type="car" begin="0" end="3600" vehsPerHour="13.31" departLane="best" departPos="random" departSpeed="0" from="-55029244#0" to="23241821#0"/>
  <flow id="motorcycle_-55029244#0_198876042#0_00013cf4" type="motorcycle" begin="0" end="3600" vehsPerHour="78.52" departLane="best" departPos="random" departSpeed="0" from="-55029244#0" to="198876042#0"/>
  <flow id="motorcycle_-55029244#0_193253427#0_00013cf4" type="motorcycle" begin="0" end="3600" vehsPerHour="68.01" departLane="best" departPos="random" departSpeed="0" from="-55029244#0" to="193253427#0"/>
  <flow id="motorcycle_-55029244#0_198876043#2_00013cf4" type="motorcycle" begin="0" end="3600" vehsPerHour="58.91" departLane="best" departPos="random" departSpeed="0" from="-55029244#0" to="198876043#2"/>
  <flow id="motorcycle_-55029244#0_28231434_00013cf4" type="motorcycle" begin="0" end="3600" vehsPerHour="52.61" departLane="best" departPos="random" departSpeed="0" from="-55029244#0" to="28231434"/>
  <flow id="motorcycle_-55029244#0_23241821#0_00013cf4" type="motorcycle" begin="0" end="3600" vehsPerHour="49.12" departLane="best" departPos="random" departSpeed="0" from="-55029244#0" to="23241821#0"/>
  <flow id="car_34241530#0_198876042#0_00013cf4" type="car" begin="0" end="3600" vehsPerHour="25.67" departLane="best" departPos="random" departSpeed="0" from="34241530#0" to="198876042#0"/>
  <flow id="car_34241530#0_193253427#0_00013cf4" type="car" begin="0" end="3600" vehsPerHour="23.06" departLane="best" departPos="random" departSpeed="0" from="34241530#0" to="193253427#0"/>
  <flow id="car_34241530#0_198876043#2_00013cf4" type="car" begin="0" end="3600" vehsPerHour="20.35" departLane="best" departPos="random" departSpeed="0" from="34241530#0" to="198876043#2"/>
  <flow id="car_34241530#0_28231434_00013cf4" type="car" begin="0" end="3600" vehsPerHour="17.46" departLane="best" departPos="random" departSpeed="0" from="34241530#0" to="28231434"/>
  <flow id="car_34241530#0_23241821#0_00013cf4" type="car" begin="0" end="3600" vehsPerHour="13.60" departLane="best" departPos="random" departSpeed="0" from="34241530#0" to="23241821#0"/>
  <flow id="motorcycle_34241530#0_198876042#0_00013cf4" type="motorcycle" begin="0" end="3600" vehsPerHour="79.19" departLane="best" departPos="random" departSpeed="0" from="34241530#0" to="198876042#0"/>
  <flow id="motorcycle_34241530#0_193253427#0_00013cf4" type="motorcycle" begin="0" end="3600" vehsPerHour="67.52" departLane="best" departPos="random" departSpeed="0" from="34241530#0" to="193253427#0"/>
  <flow id="motorcycle_34241530#0_198876043#2_00013cf4" type="motorcycle" begin="0" end="3600" vehsPerHour="58.18" departLane="best" departPos="random" departSpeed="0" from="34241530#0" to="198876043#2"/>
  <flow id="motorcycle_34241530#0_28231434_00013cf4" type="motorcycle" begin="0" end="3600" vehsPerHour="52.93" departLane="best" departPos="random" departSpeed="0" from="34241530#0" to="28231434"/>
  <flow id="motorcycle_34241530#0_23241821#0_00013cf4" type="motorcycle" begin="0" end="3600" vehsPerHour="46.92" departLane="best" departPos="random" departSpeed="0" from="34241530#0" to="23241821#0"/>
  <flow id="truck_34241530#0_198876042#0_00013cf4" type="truck" begin="0" end="3600" vehsPerHour="11.22" departLane="best" departPos="random" departSpeed="0" from="34241530#0" to="198876042#0"/>
</routes>
