<routes>
<vType id="car" vClass="passenger" accel="2.6" decel="4.5" sigma="0.5" length="5.0" maxSpeed="13.9"/>
<vType id="motorcycle" vClass="motorcycle" accel="3.0" decel="5.0" sigma="0.5" length="2.0" maxSpeed="14.0"/>
<vType id="truck" vClass="truck" accel="1.2" decel="3.5" sigma="0.5" length="12.0" maxSpeed="10.0"/>

  <flow id="car_222682222#1_193253427#0_000625cb" type="car" begin="0" end="3600" vehsPerHour="59.57" departLane="best" departPos="random" departSpeed="0" from="222682222#1" to="193253427#0"/>
  <flow id="car_222682222#1_198876043#0_000625cb" type="car" begin="0" end="3600" vehsPerHour="50.60" departLane="best" departPos="random" departSpeed="0" from="222682222#1" to="198876043#0"/>
  <flow id="car_222682222#1_28231434_000625cb" type="car" begin="0" end="3600" vehsPerHour="49.19" departLane="best" departPos="random" departSpeed="0" from="222682222#1" to="28231434"/>
  <flow id="car_222682222#1_23241821#0_000625cb" type="car" begin="0" end="3600" vehsPerHour="41.63" departLane="best" departPos="random" departSpeed="0" from="222682222#1" to="23241821#0"/>
  <flow id="car_222682222#1_198876042#0_000625cb" type="car" begin="0" end="3600" vehsPerHour="35.27" departLane="best" departPos="random" departSpeed="0" from="222682222#1" to="198876042#0"/>
  <flow id="motorcycle_222682222#1_193253427#0_000625cb" type="motorcycle" begin="0" end="3600" vehsPerHour="183.43" departLane="best" departPos="random" departSpeed="0" from="222682222#1" to="193253427#0"/>
  <flow id="motorcycle_222682222#1_198876043#0_000625cb" type="motorcycle" begin="0" end="3600" vehsPerHour="156.01" departLane="best" departPos="random" departSpeed="0" from="222682222#1" to="198876043#0"/>
  <flow id="motorcycle_222682222#1_28231434_000625cb" type="motorcycle" begin="0" end="3600" vehsPerHour="146.00" departLane="best" departPos="random" departSpeed="0" from="222682222#1" to="28231434"/>
  <flow id="motorcycle_222682222#1_23241821#0_000625cb" type="motorcycle" begin="0" end="3600" vehsPerHour="109.12" departLane="best" departPos="random" departSpeed="0" from="222682222#1" to="23241821#0"/>
  <flow id="motorcycle_222682222#1_198876042#0_000625cb" type="motorcycle" begin="0" end="3600" vehsPerHour="105.28" departLane="best" departPos="random" departSpeed="0" from="222682222#1" to="198876042#0"/>
  <flow id="car_193253433#2_198876043#0_000625cb" type="car" begin="0" end="3600" vehsPerHour="40.80" departLane="best" departPos="random" departSpeed="0" from="193253433#2" to="198876043#0"/>
  <flow id="car_193253433#2_28231434_000625cb" type="car" begin="0" end="3600" vehsPerHour="34.01" departLane="best" departPos="random" departSpeed="0" from="193253433#2" to="28231434"/>
  <flow id="car_193253433#2_23241821#0_000625cb" type="car" begin="0" end="3600" vehsPerHour="34.83" departLane="best" departPos="random" departSpeed="0" from="193253433#2" to="23241821#0"/>
  <flow id="car_193253433#2_198876042#0_000625cb" type="car" begin="0" end="3600" vehsPerHour="25.62" departLane="best" departPos="random" departSpeed="0" from="193253433#2" to="198876042#0"/>
  <flow id="car_193253433#2_193253427#0_000625cb" type="car" begin="0" end="3600" vehsPerHour="22.47" departLane="best" departPos="random" departSpeed="0" from="193253433#2" to="193253427#0"/>
  <flow id="motorcycle_193253433#2_198876043#0_000625cb" type="motorcycle" begin="0" end="3600" vehsPerHour="116.85" departLane="best" departPos="random" departSpeed="0" from="193253433#2" to="198876043#0"/>
  <flow id="motorcycle_193253433#2_28231434_000625cb" type="motorcycle" begin="0" end="3600" vehsPerHour="105.71" departLane="best" departPos="random" departSpeed="0" from="193253433#2" to="28231434"/>
  <flow id="motorcycle_193253433#2_23241821#0_000625cb" type="motorcycle" begin="0" end="3600" vehsPerHour="90.03" departLane="best" departPos="random" departSpeed="0" from="193253433#2" to="23241821#0"/>
  <flow id="motorcycle_193253433#2_198876042#0_000625cb" type="motorcycle" begin="0" end="3600" vehsPerHour="82.41" departLane="best" departPos="random" departSpeed="0" from="193253433#2" to="198876042#0"/>
  <flow id="motorcycle_193253433#2_193253427#0_000625cb" type="motorcycle" begin="0" end="3600" vehsPerHour="69.85" departLane="best" departPos="random" departSpeed="0" from="193253433#2" to="193253427#0"/>
  <flow id="car_198876045#1_28231434_000625cb" type="car" begin="0" end="3600" vehsPerHour="33.37" departLane="best" departPos="random" departSpeed="0" from="198876045#1" to="28231434"/>
  <flow id="car_198876045#1_23241821#0_000625cb" type="car" begin="0" end="3600" vehsPerHour="29.42" departLane="best" departPos="random" departSpeed="0" from="198876045#1" to="23241821#0"/>
  <flow id="car_198876045#1_198876042#0_000625cb" type="car" begin="0" end="3600" vehsPerHour="27.10" departLane="best" departPos="random" departSpeed="0" from="198876045#1" to="198876042#0"/>
  <flow id="car_198876045#1_193253427#0_000625cb" type="car" begin="0" end="3600" vehsPerHour="22.53" departLane="best" departPos="random" departSpeed="0" from="198876045#1" to="193253427#0"/>
  <flow id="car_198876045#1_198876043#2_000625cb" type="car" begin="0" end="3600" vehsPerHour="20.15" departLane="best" departPos="random" departSpeed="0" from="198876045#1" to="198876043#2"/>
  <flow id="motorcycle_198876045#1_28231434_000625cb" type="motorcycle" begin="0" end="3600" vehsPerHour="97.80" departLane="best" departPos="random" departSpeed="0" from="198876045#1" to="28231434"/>
  <flow id="motorcycle_198876045#1_23241821#0_000625cb" type="motorcycle" begin="0" end="3600" vehsPerHour="91.83" departLane="best" departPos="random" departSpeed="0" from="198876045#1" to="23241821#0"/>
  <flow id="motorcycle_198876045#1_198876042#0_000625cb" type="motorcycle" begin="0" end="3600" vehsPerHour="79.61" departLane="best" departPos="random" departSpeed="0" from="198876045#1" to="198876042#0"/>
  <flow id="motorcycle_198876045#1_193253427#0_000625cb" type="motorcycle" begin="0" end="3600" vehsPerHour="75.86" departLane="best" departPos="random" departSpeed="0" from="198876045#1" to="193253427#0"/>
  <flow id="motorcycle_198876045#1_198876043#2_000625cb" type="motorcycle" begin="0" end="3600" vehsPerHour="65.65" departLane="best" departPos="random" departSpeed="0" from="198876045#1" to="198876043#2"/>
  <flow id="car_-28231434_23241821#0_000625cb" type="car" begin="0" end="3600" vehsPerHour="23.44" departLane="best" departPos="random" departSpeed="0" from="-28231434" to="23241821#0"/>
  <flow id="car_-28231434_198876042#0_000625cb" type="car" begin="0" end="3600" vehsPerHour="20.65" departLane="best" departPos="random" departSpeed="0" from="-28231434" to="198876042#0"/>
  <flow id="car_-28231434_193253427#0_000625cb" type="car" begin="0" end="3600" vehsPerHour="16.87" departLane="best" departPos="random" departSpeed="0" from="-28231434" to="193253427#0"/>
  <flow id="car_-28231434_198876043#2_000625cb" type="car" begin="0" end="3600" vehsPerHour="16.12" departLane="best" departPos="random" departSpeed="0" from="-28231434" to="198876043#2"/>
  <flow id="car_-28231434_28231434_000625cb" type="car" begin="0" end="3600" vehsPerHour="12.98" departLane="best" departPos="random" departSpeed="0" from="-28231434" to="28231434"/>
  <flow id="motorcycle_-28231434_23241821#0_000625cb" type="motorcycle" begin="0" end="3600" vehsPerHour="70.42" departLane="best" departPos="random" departSpeed="0" from="-28231434" to="23241821#0"/>
  <flow id="motorcycle_-28231434_198876042#0_000625cb" type="motorcycle" begin="0" end="3600" vehsPerHour="58.97" departLane="best" departPos="random" departSpeed="0" from="-28231434" to="198876042#0"/>
  <flow id="motorcycle_-28231434_193253427#0_000625cb" type="motorcycle" begin="0" end="3600" vehsPerHour="55.13" departLane="best" departPos="random" departSpeed="0" from="-28231434" to="193253427#0"/>
  <flow id="motorcycle_-28231434_198876043#2_000625cb" type="motorcycle" begin="0" end="3600" vehsPerHour="46.65" departLane="best" departPos="random" departSpeed="0" from="-28231434" to="198876043#2"/>
  <flow id="motorcycle_-28231434_28231434_000625cb" type="motorcycle" begin="0" end="3600" vehsPerHour="40.50" departLane="best" departPos="random" departSpeed="0" from="-28231434" to="28231434"/>
  <flow id="car_-55029244#0_198876042#0_000625cb" type="car" begin="0" end="3600" vehsPerHour="26.47" departLane="best" departPos="random" departSpeed="0" from="-55029244#0" to="198876042#0"/>
  <flow id="car_-55029244#0_193253427#0_000625cb" type="car" begin="0" end="3600" vehsPerHour="23.36" departLane="best" departPos="random" departSpeed="0" from="-55029244#0" to="193253427#0"/>
  <flow id="car_-55029244#0_198876043#2_000625cb" type="car" begin="0" end="3600" vehsPerHour="19.54" departLane="best" departPos="random" departSpeed="0" from="-55029244#0" to="198876043#2"/>
  <flow id="car_-55029244#0_28231434_000625cb" type="car" begin="0" end="3600" vehsPerHour="17.68" departLane="best" departPos="random" departSpeed="0" from="-55029244#0" to="28231434"/>
  <flow id="car_-55029244#0_23241821#0_000625cb" type="car" begin="0" end="3600" vehsPerHour="13.11" departLane="best" departPos="random" departSpeed="0" from="-55029244#0" to="23241821#0"/>
  <flow id="motorcycle_-55029244#0_198876042#0_000625cb" type="motorcycle" begin="0" end="3600" vehsPerHour="81.11" departLane="best" departPos="random" departSpeed="0" from="-55029244#0" to="198876042#0"/>
  <flow id="motorcycle_-55029244#0_193253427#0_000625cb" type="motorcycle" begin="0" end="3600" vehsPerHour="70.06" departLane="best" departPos="random" departSpeed="0" from="-55029244#0" to="193253427#0"/>
  <flow id="motorcycle_-55029244#0_198876043#2_000625cb" type="motorcycle" begin="0" end="3600" vehsPerHour="60.83" departLane="best" departPos="random" departSpeed="0" from="-55029244#0" to="198876043#2"/>
  <flow id="motorcycle_-55029244#0_28231434_000625cb" type="motorcycle" begin="0" end="3600" vehsPerHour="55.75" departLane="best" departPos="random" departSpeed="0" from="-55029244#0" to="28231434"/>
  <flow id="motorcycle_-55029244#0_23241821#0_000625cb" type="motorcycle" begin="0" end="3600" vehsPerHour="45.77" departLane="best" departPos="random" departSpeed="0" from="-55029244#0" to="23241821#0"/>
  <flow id="car_34241530#0_198876042#0_000625cb" type="car" begin="0" end="3600" vehsPerHour="26.72" departLane="best" departPos="random" departSpeed="0" from="34241530#0" to="198876042#0"/>
  <flow id="car_34241530#0_193253427#0_000625cb" type="car" begin="0" end="3600" vehsPerHour="24.20" departLane="best" departPos="random" departSpeed="0" from="34241530#0" to="193253427#0"/>
  <flow id="car_34241530#0_198876043#2_000625cb" type="car" begin="0" end="3600" vehsPerHour="19.74" departLane="best" departPos="random" departSpeed="0" from="34241530#0" to="198876043#2"/>
  <flow id="car_34241530#0_28231434_000625cb" type="car" begin="0" end="3600" vehsPerHour="17.40" departLane="best" departPos="random" departSpeed="0" from="34241530#0" to="28231434"/>
  <flow id="car_34241530#0_23241821#0_000625cb" type="car" begin="0" end="3600" vehsPerHour="12.82" departLane="best" departPos="random" departSpeed="0" from="34241530#0" to="23241821#0"/>
  <flow id="motorcycle_34241530#0_198876042#0_000625cb" type="motorcycle" begin="0" end="3600" vehsPerHour="82.68" departLane="best" departPos="random" departSpeed="0" from="34241530#0" to="198876042#0"/>
  <flow id="motorcycle_34241530#0_193253427#0_000625cb" type="motorcycle" begin="0" end="3600" vehsPerHour="67.28" departLane="best" departPos="random" departSpeed="0" from="34241530#0" to="193253427#0"/>
  <flow id="motorcycle_34241530#0_198876043#2_000625cb" type="motorcycle" begin="0" end="3600" vehsPerHour="59.23" departLane="best" departPos="random" departSpeed="0" from="34241530#0" to="198876043#2"/>
  <flow id="motorcycle_34241530#0_28231434_000625cb" type="motorcycle" begin="0" end="3600" vehsPerHour="56.13" departLane="best" departPos="random" departSpeed="0" from="34241530#0" to="28231434"/>
  <flow id="motorcycle_34241530#0_23241821#0_000625cb" type="motorcycle" begin="0" end="3600" vehsPerHour="46.81" departLane="best" departPos="random" departSpeed="0" from="34241530#0" to="23241821#0"/>
  <flow id="truck_34241530#0_198876042#0_000625cb" type="truck" begin="0" end="3600" vehsPerHour="11.89" departLane="best" departPos="random" departSpeed="0" from="34241530#0" to="198876042#0"/>
</routes>
