<routes>
<vType id="car" vClass="passenger" accel="2.6" decel="4.5" sigma="0.5" length="5.0" maxSpeed="13.9"/>
<vType id="motorcycle" vClass="motorcycle" accel="3.0" decel="5.0" sigma="0.5" length="2.0" maxSpeed="14.0"/>
<vType id="truck" vClass="truck" accel="1.2" decel="3.5" sigma="0.5" length="12.0" maxSpeed="10.0"/>

  <flow id="car_222682222#1_193253427#0_000e7d5d" type="car" begin="0" end="3600" vehsPerHour="59.65" departLane="best" departPos="random" departSpeed="0" from="222682222#1" to="193253427#0"/>
  <flow id="car_222682222#1_198876043#0_000e7d5d" type="car" begin="0" end="3600" vehsPerHour="49.95" departLane="best" departPos="random" departSpeed="0" from="222682222#1" to="198876043#0"/>
  <flow id="car_222682222#1_28231434_000e7d5d" type="car" begin="0" end="3600" vehsPerHour="48.78" departLane="best" departPos="random" departSpeed="0" from="222682222#1" to="28231434"/>
  <flow id="car_222682222#1_23241821#0_000e7d5d" type="car" begin="0" end="3600" vehsPerHour="41.77" departLane="best" departPos="random" departSpeed="0" from="222682222#1" to="23241821#0"/>
  <flow id="car_222682222#1_198876042#0_000e7d5d" type="car" begin="0" end="3600" vehsPerHour="33.61" departLane="best" departPos="random" departSpeed="0" from="222682222#1" to="198876042#0"/>
  <flow id="motorcycle_222682222#1_193253427#0_000e7d5d" type="motorcycle" begin="0" end="3600" vehsPerHour="167.63" departLane="best" departPos="random" departSpeed="0" from="222682222#1" to="193253427#0"/>
  <flow id="motorcycle_222682222#1_198876043#0_000e7d5d" type="motorcycle" begin="0" end="3600" vehsPerHour="158.93" departLane="best" departPos="random" departSpeed="0" from="222682222#1" to="198876043#0"/>
  <flow id="motorcycle_222682222#1_28231434_000e7d5d" type="motorcycle" begin="0" end="3600" vehsPerHour="142.66" departLane="best" departPos="random" departSpeed="0" from="222682222#1" to="28231434"/>
  <flow id="motorcycle_222682222#1_23241821#0_000e7d5d" type="motorcycle" begin="0" end="3600" vehsPerHour="113.31" departLane="best" departPos="random" departSpeed="0" from="222682222#1" to="23241821#0"/>
  <flow id="motorcycle_222682222#1_198876042#0_000e7d5d" type="motorcycle" begin="0" end="3600" vehsPerHour="96.66" departLane="best" departPos="random" departSpeed="0" from="222682222#1" to="198876042#0"/>
  <flow id="car_193253433#2_198876043#0_000e7d5d" type="car" begin="0" end="3600" vehsPerHour="38.68" departLane="best" departPos="random" departSpeed="0" from="193253433#2" to="198876043#0"/>
  <flow id="car_193253433#2_28231434_000e7d5d" type="car" begin="0" end="3600" vehsPerHour="32.33" departLane="best" departPos="random" departSpeed="0" from="193253433#2" to="28231434"/>
  <flow id="car_193253433#2_23241821#0_000e7d5d" type="car" begin="0" end="3600" vehsPerHour="34.98" departLane="best" departPos="random" departSpeed="0" from="193253433#2" to="23241821#0"/>
  <flow id="car_193253433#2_198876042#0_000e7d5d" type="car" begin="0" end="3600" vehsPerHour="28.30" departLane="best" departPos="random" departSpeed="0" from="193253433#2" to="198876042#0"/>
  <flow id="car_193253433#2_193253427#0_000e7d5d" type="car" begin="0" end="3600" vehsPerHour="23.86" departLane="best" departPos="random" departSpeed="0" from="193253433#2" to="193253427#0"/>
  <flow id="motorcycle_193253433#2_198876043#0_000e7d5d" type="motorcycle" begin="0" end="3600" vehsPerHour="117.98" departLane="best" departPos="random" departSpeed="0" from="193253433#2" to="198876043#0"/>
  <flow id="motorcycle_193253433#2_28231434_000e7d5d" type="motorcycle" begin="0" end="3600" vehsPerHour="103.38" departLane="best" departPos="random" departSpeed="0" from="193253433#2" to="28231434"/>
  <flow id="motorcycle_193253433#2_23241821#0_000e7d5d" type="motorcycle" begin="0" end="3600" vehsPerHour="93.94" departLane="best" departPos="random" departSpeed="0" from="193253433#2" to="23241821#0"/>
  <flow id="motorcycle_193253433#2_198876042#0_000e7d5d" type="motorcycle" begin="0" end="3600" vehsPerHour="80.55" departLane="best" departPos="random" departSpeed="0" from="193253433#2" to="198876042#0"/>
  <flow id="motorcycle_193253433#2_193253427#0_000e7d5d" type="motorcycle" begin="0" end="3600" vehsPerHour="68.32" departLane="best" departPos="random" departSpeed="0" from="193253433#2" to="193253427#0"/>
  <flow id="car_198876045#1_28231434_000e7d5d" type="car" begin="0" end="3600" vehsPerHour="32.66" departLane="best" departPos="random" departSpeed="0" from="198876045#1" to="28231434"/>
  <flow id="car_198876045#1_23241821#0_000e7d5d" type="car" begin="0" end="3600" vehsPerHour="30.91" departLane="best" departPos="random" departSpeed="0" from="198876045#1" to="23241821#0"/>
  <flow id="car_198876045#1_198876042#0_000e7d5d" type="car" begin="0" end="3600" vehsPerHour="27.59" departLane="best" departPos="random" departSpeed="0" from="198876045#1" to="198876042#0"/>
  <flow id="car_198876045#1_193253427#0_000e7d5d" type="car" begin="0" end="3600" vehsPerHour="24.62" departLane="best" departPos="random" departSpeed="0" from="198876045#1" to="193253427#0"/>
  <flow id="car_198876045#1_198876043#2_000e7d5d" type="car" begin="0" end="3600" vehsPerHour="19.79" departLane="best" departPos="random" departSpeed="0" from="198876045#1" to="198876043#2"/>
  <flow id="motorcycle_198876045#1_28231434_000e7d5d" type="motorcycle" begin="0" end="3600" vehsPerHour="100.95" departLane="best" departPos="random" departSpeed="0" from="198876045#1" to="28231434"/>
  <flow id="motorcycle_198876045#1_23241821#0_000e7d5d" type="motorcycle" begin="0" end="3600" vehsPerHour="84.02" departLane="best" departPos="random" departSpeed="0" from="198876045#1" to="23241821#0"/>
  <flow id="motorcycle_198876045#1_198876042#0_000e7d5d" type="motorcycle" begin="0" end="3600" vehsPerHour="77.59" departLane="best" departPos="random" departSpeed="0" from="198876045#1" to="198876042#0"/>
  <flow id="motorcycle_198876045#1_193253427#0_000e7d5d" type="motorcycle" begin="0" end="3600" vehsPerHour="70.99" departLane="best" departPos="random" departSpeed="0" from="198876045#1" to="193253427#0"/>
  <flow id="motorcycle_198876045#1_198876043#2_000e7d5d" type="motorcycle" begin="0" end="3600" vehsPerHour="64.45" departLane="best" departPos="random" departSpeed="0" from="198876045#1" to="198876043#2"/>
  <flow id="car_-28231434_23241821#0_000e7d5d" type="car" begin="0" end="3600" vehsPerHour="24.77" departLane="best" departPos="random" departSpeed="0" from="-28231434" to="23241821#0"/>
  <flow id="car_-28231434_198876042#0_000e7d5d" type="car" begin="0" end="3600" vehsPerHour="19.98" departLane="best" departPos="random" departSpeed="0" from="-28231434" to="198876042#0"/>
  <flow id="car_-28231434_193253427#0_000e7d5d" type="car" begin="0" end="3600" vehsPerHour="16.34" departLane="best" departPos="random" departSpeed="0" from="-28231434" to="193253427#0"/>
  <flow id="car_-28231434_198876043#2_000e7d5d" type="car" begin="0" end="3600" vehsPerHour="16.65" departLane="best" departPos="random" departSpeed="0" from="-28231434" to="198876043#2"/>
  <flow id="car_-28231434_28231434_000e7d5d" type="car" begin="0" end="3600" vehsPerHour="12.85" departLane="best" departPos="random" departSpeed="0" from="-28231434" to="28231434"/>
  <flow id="motorcycle_-28231434_23241821#0_000e7d5d" type="motorcycle" begin="0" end="3600" vehsPerHour="69.89" departLane="best" departPos="random" departSpeed="0" from="-28231434" to="23241821#0"/>
  <flow id="motorcycle_-28231434_198876042#0_000e7d5d" type="motorcycle" begin="0" end="3600" vehsPerHour="62.05" departLane="best" departPos="random" departSpeed="0" from="-28231434" to="198876042#0"/>
  <flow id="motorcycle_-28231434_193253427#0_000e7d5d" type="motorcycle" begin="0" end="3600" vehsPerHour="52.09" departLane="best" departPos="random" departSpeed="0" from="-28231434" to="193253427#0"/>
  <flow id="motorcycle_-28231434_198876043#2_000e7d5d" type="motorcycle" begin="0" end="3600" vehsPerHour="45.56" departLane="best" departPos="random" departSpeed="0" from="-28231434" to="198876043#2"/>
  <flow id="motorcycle_-28231434_28231434_000e7d5d" type="motorcycle" begin="0" end="3600" vehsPerHour="42.37" departLane="best" departPos="random" departSpeed="0" from="-28231434" to="28231434"/>
  <flow id="car_-55029244#0_198876042#0_000e7d5d" type="car" begin="0" end="3600" vehsPerHour="27.41" departLane="best" departPos="random" departSpeed="0" from="-55029244#0" to="198876042#0"/>
  <flow id="car_-55029244#0_193253427#0_000e7d5d" type="car" begin="0" end="3600" vehsPerHour="22.70" departLane="best" departPos="random" departSpeed="0" from="-55029244#0" to="193253427#0"/>
  <flow id="car_-55029244#0_198876043#2_000e7d5d" type="car" begin="0" end="3600" vehsPerHour="20.65" departLane="best" departPos="random" departSpeed="0" from="-55029244#0" to="198876043#2"/>
  <flow id="car_-55029244#0_28231434_000e7d5d" type="car" begin="0" end="3600" vehsPerHour="16.40" departLane="best" departPos="random" departSpeed="0" from="-55029244#0" to="28231434"/>
  <flow id="car_-55029244#0_23241821#0_000e7d5d" type="car" begin="0" end="3600" vehsPerHour="13.39" departLane="best" departPos="random" departSpeed="0" from="-55029244#0" to="23241821#0"/>
  <flow id="motorcycle_-55029244#0_198876042#0_000e7d5d" type="motorcycle" begin="0" end="3600" vehsPerHour="84.31" departLane="best" departPos="random" departSpeed="0" from="-55029244#0" to="198876042#0"/>
  <flow id="motorcycle_-55029244#0_193253427#0_000e7d5d" type="motorcycle" begin="0" end="3600" vehsPerHour="69.56" departLane="best" departPos="random" departSpeed="0" from="-55029244#0" to="193253427#0"/>
  <flow id="motorcycle_-55029244#0_198876043#2_000e7d5d" type="motorcycle" begin="0" end="3600" vehsPerHour="60.89" departLane="best" departPos="random" departSpeed="0" from="-55029244#0" to="198876043#2"/>
  <flow id="motorcycle_-55029244#0_28231434_000e7d5d" type="motorcycle" begin="0" end="3600" vehsPerHour="51.89" departLane="best" departPos="random" departSpeed="0" from="-55029244#0" to="28231434"/>
  <flow id="motorcycle_-55029244#0_23241821#0_000e7d5d" type="motorcycle" begin="0" end="3600" vehsPerHour="48.38" departLane="best" departPos="random" departSpeed="0" from="-55029244#0" to="23241821#0"/>
  <flow id="car_34241530#0_198876042#0_000e7d5d" type="car" begin="0" end="3600" vehsPerHour="27.46" departLane="best" departPos="random" departSpeed="0" from="34241530#0" to="198876042#0"/>
  <flow id="car_34241530#0_193253427#0_000e7d5d" type="car" begin="0" end="3600" vehsPerHour="24.29" departLane="best" departPos="random" departSpeed="0" from="34241530#0" to="193253427#0"/>
  <flow id="car_34241530#0_198876043#2_000e7d5d" type="car" begin="0" end="3600" vehsPerHour="21.02" departLane="best" departPos="random" departSpeed="0" from="34241530#0" to="198876043#2"/>
  <flow id="car_34241530#0_28231434_000e7d5d" type="car" begin="0" end="3600" vehsPerHour="16.80" departLane="best" departPos="random" departSpeed="0" from="34241530#0" to="28231434"/>
  <flow id="car_34241530#0_23241821#0_000e7d5d" type="car" begin="0" end="3600" vehsPerHour="12.85" departLane="best" departPos="random" departSpeed="0" from="34241530#0" to="23241821#0"/>
  <flow id="motorcycle_34241530#0_198876042#0_000e7d5d" type="motorcycle" begin="0" end="3600" vehsPerHour="79.23" departLane="best" departPos="random" departSpeed="0" from="34241530#0" to="198876042#0"/>
  <flow id="motorcycle_34241530#0_193253427#0_000e7d5d" type="motorcycle" begin="0" end="3600" vehsPerHour="65.47" departLane="best" departPos="random" departSpeed="0" from="34241530#0" to="193253427#0"/>
  <flow id="motorcycle_34241530#0_198876043#2_000e7d5d" type="motorcycle" begin="0" end="3600" vehsPerHour="61.59" departLane="best" departPos="random" departSpeed="0" from="34241530#0" to="198876043#2"/>
  <flow id="motorcycle_34241530#0_28231434_000e7d5d" type="motorcycle" begin="0" end="3600" vehsPerHour="56.25" departLane="best" departPos="random" departSpeed="0" from="34241530#0" to="28231434"/>
  <flow id="motorcycle_34241530#0_23241821#0_000e7d5d" type="motorcycle" begin="0" end="3600" vehsPerHour="48.58" departLane="best" departPos="random" departSpeed="0" from="34241530#0" to="23241821#0"/>
  <flow id="truck_34241530#0_198876042#0_000e7d5d" type="truck" begin="0" end="3600" vehsPerHour="12.14" departLane="best" departPos="random" departSpeed="0" from="34241530#0" to="198876042#0"/>
</routes>
