<routes>
<vType id="car" vClass="passenger" accel="2.6" decel="4.5" sigma="0.5" length="5.0" maxSpeed="13.9"/>
<vType id="motorcycle" vClass="motorcycle" accel="3.0" decel="5.0" sigma="0.5" length="2.0" maxSpeed="14.0"/>
<vType id="truck" vClass="truck" accel="1.2" decel="3.5" sigma="0.5" length="12.0" maxSpeed="10.0"/>

  <flow id="car_222682222#1_193253427#0_000da880" type="car" begin="0" end="3600" vehsPerHour="63.54" departLane="best" departPos="random" departSpeed="0" from="222682222#1" to="193253427#0"/>
  <flow id="car_222682222#1_198876043#0_000da880" type="car" begin="0" end="3600" vehsPerHour="49.21" departLane="best" departPos="random" departSpeed="0" from="222682222#1" to="198876043#0"/>
  <flow id="car_222682222#1_28231434_000da880" type="car" begin="0" end="3600" vehsPerHour="51.52" departLane="best" departPos="random" departSpeed="0" from="222682222#1" to="28231434"/>
  <flow id="car_222682222#1_23241821#0_000da880" type="car" begin="0" end="3600" vehsPerHour="41.50" departLane="best" departPos="random" departSpeed="0" from="222682222#1" to="23241821#0"/>
  <flow id="car_222682222#1_198876042#0_000da880" type="car" begin="0" end="3600" vehsPerHour="33.16" departLane="best" departPos="random" departSpeed="0" from="222682222#1" to="198876042#0"/>
  <flow id="motorcycle_222682222#1_193253427#0_000da880" type="motorcycle" begin="0" end="3600" vehsPerHour="177.83" departLane="best" departPos="random" departSpeed="0" from="222682222#1" to="193253427#0"/>
  <flow id="motorcycle_222682222#1_198876043#0_000da880" type="motorcycle" begin="0" end="3600" vehsPerHour="148.53" departLane="best" departPos="random" departSpeed="0" from="222682222#1" to="198876043#0"/>
  <flow id="motorcycle_222682222#1_28231434_000da880" type="motorcycle" begin="0" end="3600" vehsPerHour="140.27" departLane="best" departPos="random" departSpeed="0" from="222682222#1" to="28231434"/>
  <flow id="motorcycle_222682222#1_23241821#0_000da880" type="motorcycle" begin="0" end="3600" vehsPerHour="111.64" departLane="best" departPos="random" departSpeed="0" from="222682222#1" to="23241821#0"/>
  <flow id="motorcycle_222682222#1_198876042#0_000da880" type="motorcycle" begin="0" end="3600" vehsPerHour="100.65" departLane="best" departPos="random" departSpeed="0" from="222682222#1" to="198876042#0"/>
  <flow id="car_193253433#2_198876043#0_000da880" type="car" begin="0" end="3600" vehsPerHour="41.65" departLane="best" departPos="random" departSpeed="0" from="193253433#2" to="198876043#0"/>
  <flow id="car_193253433#2_28231434_000da880" type="car" begin="0" end="3600" vehsPerHour="32.21" departLane="best" departPos="random" departSpeed="0" from="193253433#2" to="28231434"/>
  <flow id="car_193253433#2_23241821#0_000da880" type="car" begin="0" end="3600" vehsPerHour="35.29" departLane="best" departPos="random" departSpeed="0" from="193253433#2" to="23241821#0"/>
  <flow id="car_193253433#2_198876042#0_000da880" type="car" begin="0" end="3600" vehsPerHour="28.23" departLane="best" departPos="random" departSpeed="0" from="193253433#2" to="198876042#0"/>
  <flow id="car_193253433#2_193253427#0_000da880" type="car" begin="0" end="3600" vehsPerHour="22.62" departLane="best" departPos="random" departSpeed="0" from="193253433#2" to="193253427#0"/>
  <flow id="motorcycle_193253433#2_198876043#0_000da880" type="motorcycle" begin="0" end="3600" vehsPerHour="117.55" departLane="best" departPos="random" departSpeed="0" from="193253433#2" to="198876043#0"/>
  <flow id="motorcycle_193253433#2_28231434_000da880" type="motorcycle" begin="0" end="3600" vehsPerHour="102.13" departLane="best" departPos="random" departSpeed="0" from="193253433#2" to="28231434"/>
  <flow id="motorcycle_193253433#2_23241821#0_000da880" type="motorcycle" begin="0" end="3600" vehsPerHour="96.89" departLane="best" departPos="random" departSpeed="0" from="193253433#2" to="23241821#0"/>
  <flow id="motorcycle_193253433#2_198876042#0_000da880" type="motorcycle" begin="0" end="3600" vehsPerHour="84.02" departLane="best" departPos="random" departSpeed="0" from="193253433#2" to="198876042#0"/>
  <flow id="motorcycle_193253433#2_193253427#0_000da880" type="motorcycle" begin="0" end="3600" vehsPerHour="70.20" departLane="best" departPos="random" departSpeed="0" from="193253433#2" to="193253427#0"/>
  <flow id="car_198876045#1_28231434_000da880" type="car" begin="0" end="3600" vehsPerHour="33.55" departLane="best" departPos="random" departSpeed="0" from="198876045#1" to="28231434"/>
  <flow id="car_198876045#1_23241821#0_000da880" type="car" begin="0" end="3600" vehsPerHour="30.61" departLane="best" departPos="random" departSpeed="0" from="198876045#1" to="23241821#0"/>
  <flow id="car_198876045#1_198876042#0_000da880" type="car" begin="0" end="3600" vehsPerHour="27.38" departLane="best" departPos="random" departSpeed="0" from="198876045#1" to="198876042#0"/>
  <flow id="car_198876045#1_193253427#0_000da880" type="car" begin="0" end="3600" vehsPerHour="24.28" departLane="best" departPos="random" departSpeed="0" from="198876045#1" to="193253427#0"/>
  <flow id="car_198876045#1_198876043#2_000da880" type="car" begin="0" end="3600" vehsPerHour="21.01" departLane="best" departPos="random" departSpeed="0" from="198876045#1" to="198876043#2"/>
  <flow id="motorcycle_198876045#1_28231434_000da880" type="motorcycle" begin="0" end="3600" vehsPerHour="103.21" departLane="best" departPos="random" departSpeed="0" from="198876045#1" to="28231434"/>
  <flow id="motorcycle_198876045#1_23241821#0_000da880" type="motorcycle" begin="0" end="3600" vehsPerHour="84.34" departLane="best" departPos="random" departSpeed="0" from="198876045#1" to="23241821#0"/>
  <flow id="motorcycle_198876045#1_198876042#0_000da880" type="motorcycle" begin="0" end="3600" vehsPerHour="83.15" departLane="best" departPos="random" departSpeed="0" from="198876045#1" to="198876042#0"/>
  <flow id="motorcycle_198876045#1_193253427#0_000da880" type="motorcycle" begin="0" end="3600" vehsPerHour="75.71" departLane="best" departPos="random" departSpeed="0" from="198876045#1" to="193253427#0"/>
  <flow id="motorcycle_198876045#1_198876043#2_000da880" type="motorcycle" begin="0" end="3600" vehsPerHour="65.63" departLane="best" departPos="random" departSpeed="0" from="198876045#1" to="198876043#2"/>
  <flow id="car_-28231434_23241821#0_000da880" type="car" begin="0" end="3600" vehsPerHour="23.43" departLane="best" departPos="random" departSpeed="0" from="-28231434" to="23241821#0"/>
  <flow id="car_-28231434_198876042#0_000da880" type="car" begin="0" end="3600" vehsPerHour="19.54" departLane="best" departPos="random" departSpeed="0" from="-28231434" to="198876042#0"/>
  <flow id="car_-28231434_193253427#0_000da880" type="car" begin="0" end="3600" vehsPerHour="17.50" departLane="best" departPos="random" departSpeed="0" from="-28231434" to="193253427#0"/>
  <flow id="car_-28231434_198876043#2_000da880" type="car" begin="0" end="3600" vehsPerHour="17.10" departLane="best" departPos="random" departSpeed="0" from="-28231434" to="198876043#2"/>
  <flow id="car_-28231434_28231434_000da880" type="car" begin="0" end="3600" vehsPerHour="13.85" departLane="best" departPos="random" departSpeed="0" from="-28231434" to="28231434"/>
  <flow id="motorcycle_-28231434_23241821#0_000da880" type="motorcycle" begin="0" end="3600" vehsPerHour="65.41" departLane="best" departPos="random" departSpeed="0" from="-28231434" to="23241821#0"/>
  <flow id="motorcycle_-28231434_198876042#0_000da880" type="motorcycle" begin="0" end="3600" vehsPerHour="61.02" departLane="best" departPos="random" departSpeed="0" from="-28231434" to="198876042#0"/>
  <flow id="motorcycle_-28231434_193253427#0_000da880" type="motorcycle" begin="0" end="3600" vehsPerHour="56.03" departLane="best" departPos="random" departSpeed="0" from="-28231434" to="193253427#0"/>
  <flow id="motorcycle_-28231434_198876043#2_000da880" type="motorcycle" begin="0" end="3600" vehsPerHour="45.60" departLane="best" departPos="random" departSpeed="0" from="-28231434" to="198876043#2"/>
  <flow id="motorcycle_-28231434_28231434_000da880" type="motorcycle" begin="0" end="3600" vehsPerHour="40.60" departLane="best" departPos="random" departSpeed="0" from="-28231434" to="28231434"/>
  <flow id="car_-55029244#0_198876042#0_000da880" type="car" begin="0" end="3600" vehsPerHour="26.37" departLane="best" departPos="random" departSpeed="0" from="-55029244#0" to="198876042#0"/>
  <flow id="car_-55029244#0_193253427#0_000da880" type="car" begin="0" end="3600" vehsPerHour="23.85" departLane="best" departPos="random" departSpeed="0" from="-55029244#0" to="193253427#0"/>
  <flow id="car_-55029244#0_198876043#2_000da880" type="car" begin="0" end="3600" vehsPerHour="19.65" departLane="best" departPos="random" departSpeed="0" from="-55029244#0" to="198876043#2"/>
  <flow id="car_-55029244#0_28231434_000da880" type="car" begin="0" end="3600" vehsPerHour="17.06" departLane="best" departPos="random" departSpeed="0" from="-55029244#0" to="28231434"/>
  <flow id="car_-55029244#0_23241821#0_000da880" type="car" begin="0" end="3600" vehsPerHour="13.78" departLane="best" departPos="random" departSpeed="0" from="-55029244#0" to="23241821#0"/>
  <flow id="motorcycle_-55029244#0_198876042#0_000da880" type="motorcycle" begin="0" end="3600" vehsPerHour="82.25" departLane="best" departPos="random" departSpeed="0" from="-55029244#0" to="198876042#0"/>
  <flow id="motorcycle_-55029244#0_193253427#0_000da880" type="motorcycle" begin="0" end="3600" vehsPerHour="66.04" departLane="best" departPos="random" departSpeed="0" from="-55029244#0" to="193253427#0"/>
  <flow id="motorcycle_-55029244#0_198876043#2_000da880" type="motorcycle" begin="0" end="3600" vehsPerHour="57.90" departLane="best" departPos="random" departSpeed="0" from="-55029244#0" to="198876043#2"/>
  <flow id="motorcycle_-55029244#0_28231434_000da880" type="motorcycle" begin="0" end="3600" vehsPerHour="53.61" departLane="best" departPos="random" departSpeed="0" from="-55029244#0" to="28231434"/>
  <flow id="motorcycle_-55029244#0_23241821#0_000da880" type="motorcycle" begin="0" end="3600" vehsPerHour="49.11" departLane="best" departPos="random" departSpeed="0" from="-55029244#0" to="23241821#0"/>
  <flow id="car_34241530#0_198876042#0_000da880" type="car" begin="0" end="3600" vehsPerHour="27.13" departLane="best" departPos="random" departSpeed="0" from="34241530#0" to="198876042#0"/>
  <flow id="car_34241530#0_193253427#0_000da880" type="car" begin="0" end="3600" vehsPerHour="22.56" departLane="best" departPos="random" departSpeed="0" from="34241530#0" to="193253427#0"/>
  <flow id="car_34241530#0_198876043#2_000da880" type="car" begin="0" end="3600" vehsPerHour="19.88" departLane="best" departPos="random" departSpeed="0" from="34241530#0" to="198876043#2"/>
  <flow id="car_34241530#0_28231434_000da880" type="car" begin="0" end="3600" vehsPerHour="17.51" departLane="best" departPos="random" departSpeed="0" from="34241530#0" to="28231434"/>
  <flow id="car_34241530#0_23241821#0_000da880" type="car" begin="0" end="3600" vehsPerHour="14.01" departLane="best" departPos="random" departSpeed="0" from="34241530#0" to="23241821#0"/>
  <flow id="motorcycle_34241530#0_198876042#0_000da880" type="motorcycle" begin="0" end="3600" vehsPerHour="78.44" departLane="best" departPos="random" departSpeed="0" from="34241530#0" to="198876042#0"/>
  <flow id="motorcycle_34241530#0_193253427#0_000da880" type="motorcycle" begin="0" end="3600" vehsPerHour="67.91" departLane="best" departPos="random" departSpeed="0" from="34241530#0" to="193253427#0"/>
  <flow id="motorcycle_34241530#0_198876043#2_000da880" type="motorcycle" begin="0" end="3600" vehsPerHour="61.28" departLane="best" departPos="random" departSpeed="0" from="34241530#0" to="198876043#2"/>
  <flow id="motorcycle_34241530#0_28231434_000da880" type="motorcycle" begin="0" end="3600" vehsPerHour="51.29" departLane="best" departPos="random" departSpeed="0" from="34241530#0" to="28231434"/>
  <flow id="motorcycle_34241530#0_23241821#0_000da880" type="motorcycle" begin="0" end="3600" vehsPerHour="46.87" departLane="best" departPos="random" departSpeed="0" from="34241530#0" to="23241821#0"/>
  <flow id="truck_34241530#0_198876042#0_000da880" type="truck" begin="0" end="3600" vehsPerHour="11.93" departLane="best" departPos="random" departSpeed="0" from="34241530#0" to="198876042#0"/>
</routes>
