<routes>
<vType id="car" vClass="passenger" accel="2.6" decel="4.5" sigma="0.5" length="5.0" maxSpeed="13.9"/>
<vType id="motorcycle" vClass="motorcycle" accel="3.0" decel="5.0" sigma="0.5" length="2.0" maxSpeed="14.0"/>
<vType id="truck" vClass="truck" accel="1.2" decel="3.5" sigma="0.5" length="12.0" maxSpeed="10.0"/>

  <flow id="car_222682222#1_193253427#0_00055b1d" type="car" begin="0" end="3600" vehsPerHour="57.97" departLane="best" departPos="random" departSpeed="0" from="222682222#1" to="193253427#0"/>
  <flow id="car_222682222#1_198876043#0_00055b1d" type="car" begin="0" end="3600" vehsPerHour="48.49" departLane="best" departPos="random" departSpeed="0" from="222682222#1" to="198876043#0"/>
  <flow id="car_222682222#1_28231434_00055b1d" type="car" begin="0" end="3600" vehsPerHour="53.06" departLane="best" departPos="random" departSpeed="0" from="222682222#1" to="28231434"/>
  <flow id="car_222682222#1_23241821#0_00055b1d" type="car" begin="0" end="3600" vehsPerHour="38.86" departLane="best" departPos="random" departSpeed="0" from="222682222#1" to="23241821#0"/>
  <flow id="car_222682222#1_198876042#0_00055b1d" type="car" begin="0" end="3600" vehsPerHour="35.18" departLane="best" departPos="random" departSpeed="0" from="222682222#1" to="198876042#0"/>
  <flow id="motorcycle_222682222#1_193253427#0_00055b1d" type="motorcycle" begin="0" end="3600" vehsPerHour="182.94" departLane="best" departPos="random" departSpeed="0" from="222682222#1" to="193253427#0"/>
  <flow id="motorcycle_222682222#1_198876043#0_00055b1d" type="motorcycle" begin="0" end="3600" vehsPerHour="151.00" departLane="best" departPos="random" departSpeed="0" from="222682222#1" to="198876043#0"/>
  <flow id="motorcycle_222682222#1_28231434_00055b1d" type="motorcycle" begin="0" end="3600" vehsPerHour="137.84" departLane="best" departPos="random" departSpeed="0" from="222682222#1" to="28231434"/>
  <flow id="motorcycle_222682222#1_23241821#0_00055b1d" type="motorcycle" begin="0" end="3600" vehsPerHour="114.85" departLane="best" departPos="random" departSpeed="0" from="222682222#1" to="23241821#0"/>
  <flow id="motorcycle_222682222#1_198876042#0_00055b1d" type="motorcycle" begin="0" end="3600" vehsPerHour="101.71" departLane="best" departPos="random" departSpeed="0" from="222682222#1" to="198876042#0"/>
  <flow id="car_193253433#2_198876043#0_00055b1d" type="car" begin="0" end="3600" vehsPerHour="38.66" departLane="best" departPos="random" departSpeed="0" from="193253433#2" to="198876043#0"/>
  <flow id="car_193253433#2_28231434_00055b1d" type="car" begin="0" end="3600" vehsPerHour="34.62" departLane="best" departPos="random" departSpeed="0" from="193253433#2" to="28231434"/>
  <flow id="car_193253433#2_23241821#0_00055b1d" type="car" begin="0" end="3600" vehsPerHour="35.29" departLane="best" departPos="random" departSpeed="0" from="193253433#2" to="23241821#0"/>
  <flow id="car_193253433#2_198876042#0_00055b1d" type="car" begin="0" end="3600" vehsPerHour="26.42" departLane="best" departPos="random" departSpeed="0" from="193253433#2" to="198876042#0"/>
  <flow id="car_193253433#2_193253427#0_00055b1d" type="car" begin="0" end="3600" vehsPerHour="23.73" departLane="best" departPos="random" departSpeed="0" from="193253433#2" to="193253427#0"/>
  <flow id="motorcycle_193253433#2_198876043#0_00055b1d" type="motorcycle" begin="0" end="3600" vehsPerHour="118.08" departLane="best" departPos="random" departSpeed="0" from="193253433#2" to="198876043#0"/>
  <flow id="motorcycle_193253433#2_28231434_00055b1d" type="motorcycle" begin="0" end="3600" vehsPerHour="102.28" departLane="best" departPos="random" departSpeed="0" from="193253433#2" to="28231434"/>
  <flow id="motorcycle_193253433#2_23241821#0_00055b1d" type="motorcycle" begin="0" end="3600" vehsPerHour="98.06" departLane="best" departPos="random" departSpeed="0" from="193253433#2" to="23241821#0"/>
  <flow id="motorcycle_193253433#2_198876042#0_00055b1d" type="motorcycle" begin="0" end="3600" vehsPerHour="81.00" departLane="best" departPos="random" departSpeed="0" from="193253433#2" to="198876042#0"/>
  <flow id="motorcycle_193253433#2_193253427#0_00055b1d" type="motorcycle" begin="0" end="3600" vehsPerHour="65.98" departLane="best" departPos="random" departSpeed="0" from="193253433#2" to="193253427#0"/>
  <flow id="car_198876045#1_28231434_00055b1d" type="car" begin="0" end="3600" vehsPerHour="34.48" departLane="best" departPos="random" departSpeed="0" from="198876045#1" to="28231434"/>
  <flow id="car_198876045#1_23241821#0_00055b1d" type="car" begin="0" end="3600" vehsPerHour="30.92" departLane="best" departPos="random" departSpeed="0" from="198876045#1" to="23241821#0"/>
  <flow id="car_198876045#1_198876042#0_00055b1d" type="car" begin="0" end="3600" vehsPerHour="27.40" departLane="best" departPos="random" departSpeed="0" from="198876045#1" to="198876042#0"/>
  <flow id="car_198876045#1_193253427#0_00055b1d" type="car" begin="0" end="3600" vehsPerHour="24.57" departLane="best" departPos="random" departSpeed="0" from="198876045#1" to="193253427#0"/>
  <flow id="car_198876045#1_198876043#2_00055b1d" type="car" begin="0" end="3600" vehsPerHour="20.93" departLane="best" departPos="random" departSpeed="0" from="198876045#1" to="198876043#2"/>
  <flow id="motorcycle_198876045#1_28231434_00055b1d" type="motorcycle" begin="0" end="3600" vehsPerHour="99.60" departLane="best" departPos="random" departSpeed="0" from="198876045#1" to="28231434"/>
  <flow id="motorcycle_198876045#1_23241821#0_00055b1d" type="motorcycle" begin="0" end="3600" vehsPerHour="87.42" departLane="best" departPos="random" departSpeed="0" from="198876045#1" to="23241821#0"/>
  <flow id="motorcycle_198876045#1_198876042#0_00055b1d" type="motorcycle" begin="0" end="3600" vehsPerHour="79.13" departLane="best" departPos="random" departSpeed="0" from="198876045#1" to="198876042#0"/>
  <flow id="motorcycle_198876045#1_193253427#0_00055b1d" type="motorcycle" begin="0" end="3600" vehsPerHour="73.46" departLane="best" departPos="random" departSpeed="0" from="198876045#1" to="193253427#0"/>
  <flow id="motorcycle_198876045#1_198876043#2_00055b1d" type="motorcycle" begin="0" end="3600" vehsPerHour="66.43" departLane="best" departPos="random" departSpeed="0" from="198876045#1" to="198876043#2"/>
  <flow id="car_-28231434_23241821#0_00055b1d" type="car" begin="0" end="3600" vehsPerHour="23.76" departLane="best" departPos="random" departSpeed="0" from="-28231434" to="23241821#0"/>
  <flow id="car_-28231434_198876042#0_00055b1d" type="car" begin="0" end="3600" vehsPerHour="20.33" departLane="best" departPos="random" departSpeed="0" from="-28231434" to="198876042#0"/>
  <flow id="car_-28231434_193253427#0_00055b1d" type="car" begin="0" end="3600" vehsPerHour="16.42" departLane="best" departPos="random" departSpeed="0" from="-28231434" to="193253427#0"/>
  <flow id="car_-28231434_198876043#2_00055b1d" type="car" begin="0" end="3600" vehsPerHour="16.38" departLane="best" departPos="random" departSpeed="0" from="-28231434" to="198876043#2"/>
  <flow id="car_-28231434_28231434_00055b1d" type="car" begin="0" end="3600" vehsPerHour="13.37" departLane="best" departPos="random" departSpeed="0" from="-28231434" to="28231434"/>
  <flow id="motorcycle_-28231434_23241821#0_00055b1d" type="motorcycle" begin="0" end="3600" vehsPerHour="65.88" departLane="best" departPos="random" departSpeed="0" from="-28231434" to="23241821#0"/>
  <flow id="motorcycle_-28231434_198876042#0_00055b1d" type="motorcycle" begin="0" end="3600" vehsPerHour="61.80" departLane="best" departPos="random" departSpeed="0" from="-28231434" to="198876042#0"/>
  <flow id="motorcycle_-28231434_193253427#0_00055b1d" type="motorcycle" begin="0" end="3600" vehsPerHour="52.63" departLane="best" departPos="random" departSpeed="0" from="-28231434" to="193253427#0"/>
  <flow id="motorcycle_-28231434_198876043#2_00055b1d" type="motorcycle" begin="0" end="3600" vehsPerHour="47.17" departLane="best" departPos="random" departSpeed="0" from="-28231434" to="198876043#2"/>
  <flow id="motorcycle_-28231434_28231434_00055b1d" type="motorcycle" begin="0" end="3600" vehsPerHour="38.43" departLane="best" departPos="random" departSpeed="0" from="-28231434" to="28231434"/>
  <flow id="car_-55029244#0_198876042#0_00055b1d" type="car" begin="0" end="3600" vehsPerHour="26.12" departLane="best" departPos="random" departSpeed="0" from="-55029244#0" to="198876042#0"/>
  <flow id="car_-55029244#0_193253427#0_00055b1d" type="car" begin="0" end="3600" vehsPerHour="24.01" departLane="best" departPos="random" departSpeed="0" from="-55029244#0" to="193253427#0"/>
  <flow id="car_-55029244#0_198876043#2_00055b1d" type="car" begin="0" end="3600" vehsPerHour="20.59" departLane="best" departPos="random" departSpeed="0" from="-55029244#0" to="198876043#2"/>
  <flow id="car_-55029244#0_28231434_00055b1d" type="car" begin="0" end="3600" vehsPerHour="16.78" departLane="best" departPos="random" departSpeed="0" from="-55029244#0" to="28231434"/>
  <flow id="car_-55029244#0_23241821#0_00055b1d" type="car" begin="0" end="3600" vehsPerHour="13.66" departLane="best" departPos="random" departSpeed="0" from="-55029244#0" to="23241821#0"/>
  <flow id="motorcycle_-55029244#0_198876042#0_00055b1d" type="motorcycle" begin="0" end="3600" vehsPerHour="83.34" departLane="best" departPos="random" departSpeed="0" from="-55029244#0" to="198876042#0"/>
  <flow id="motorcycle_-55029244#0_193253427#0_00055b1d" type="motorcycle" begin="0" end="3600" vehsPerHour="69.82" departLane="best" departPos="random" departSpeed="0" from="-55029244#0" to="193253427#0"/>
  <flow id="motorcycle_-55029244#0_198876043#2_00055b1d" type="motorcycle" begin="0" end="3600" vehsPerHour="63.56" departLane="best" departPos="random" departSpeed="0" from="-55029244#0" to="198876043#2"/>
  <flow id="motorcycle_-55029244#0_28231434_00055b1d" type="motorcycle" begin="0" end="3600" vehsPerHour="55.95" departLane="best" departPos="random" departSpeed="0" from="-55029244#0" to="28231434"/>
  <flow id="motorcycle_-55029244#0_23241821#0_00055b1d" type="motorcycle" begin="0" end="3600" vehsPerHour="46.67" departLane="best" departPos="random" departSpeed="0" from="-55029244#0" to="23241821#0"/>
  <flow id="car_34241530#0_198876042#0_00055b1d" type="car" begin="0" end="3600" vehsPerHour="25.66" departLane="best" departPos="random" departSpeed="0" from="34241530#0" to="198876042#0"/>
  <flow id="car_34241530#0_193253427#0_00055b1d" type="car" begin="0" end="3600" vehsPerHour="24.72" departLane="best" departPos="random" departSpeed="0" from="34241530#0" to="193253427#0"/>
  <flow id="car_34241530#0_198876043#2_00055b1d" type="car" begin="0" end="3600" vehsPerHour="20.20" departLane="best" departPos="random" departSpeed="0" from="34241530#0" to="198876043#2"/>
  <flow id="car_34241530#0_28231434_00055b1d" type="car" begin="0" end="3600" vehsPerHour="16.32" departLane="best" departPos="random" departSpeed="0" from="34241530#0" to="28231434"/>
  <flow id="car_34241530#0_23241821#0_00055b1d" type="car" begin="0" end="3600" vehsPerHour="13.60" departLane="best" departPos="random" departSpeed="0" from="34241530#0" to="23241821#0"/>
  <flow id="motorcycle_34241530#0_198876042#0_00055b1d" type="motorcycle" begin="0" end="3600" vehsPerHour="80.89" departLane="best" departPos="random" departSpeed="0" from="34241530#0" to="198876042#0"/>
  <flow id="motorcycle_34241530#0_193253427#0_00055b1d" type="motorcycle" begin="0" end="3600" vehsPerHour="64.51" departLane="best" departPos="random" departSpeed="0" from="34241530#0" to="193253427#0"/>
  <flow id="motorcycle_34241530#0_198876043#2_00055b1d" type="motorcycle" begin="0" end="3600" vehsPerHour="59.80" departLane="best" departPos="random" departSpeed="0" from="34241530#0" to="198876043#2"/>
  <flow id="motorcycle_34241530#0_28231434_00055b1d" type="motorcycle" begin="0" end="3600" vehsPerHour="53.64" departLane="best" departPos="random" departSpeed="0" from="34241530#0" to="28231434"/>
  <flow id="motorcycle_34241530#0_23241821#0_00055b1d" type="motorcycle" begin="0" end="3600" vehsPerHour="46.20" departLane="best" departPos="random" departSpeed="0" from="34241530#0" to="23241821#0"/>
  <flow id="truck_34241530#0_198876042#0_00055b1d" type="truck" begin="0" end="3600" vehsPerHour="12.31" departLane="best" departPos="random" departSpeed="0" from="34241530#0" to="198876042#0"/>
</routes>
