<routes>
<vType id="car" vClass="passenger" accel="2.6" decel="4.5" sigma="0.5" length="5.0" maxSpeed="13.9"/>
<vType id="motorcycle" vClass="motorcycle" accel="3.0" decel="5.0" sigma="0.5" length="2.0" maxSpeed="14.0"/>
<vType id="truck" vClass="truck" accel="1.2" decel="3.5" sigma="0.5" length="12.0" maxSpeed="10.0"/>

  <flow id="car_222682222#1_193253427#0_000268a8" type="car" begin="0" end="3600" vehsPerHour="60.30" departLane="best" departPos="random" departSpeed="0" from="222682222#1" to="193253427#0"/>
  <flow id="car_222682222#1_198876043#0_000268a8" type="car" begin="0" end="3600" vehsPerHour="50.00" departLane="best" departPos="random" departSpeed="0" from="222682222#1" to="198876043#0"/>
  <flow id="car_222682222#1_28231434_000268a8" type="car" begin="0" end="3600" vehsPerHour="51.13" departLane="best" departPos="random" departSpeed="0" from="222682222#1" to="28231434"/>
  <flow id="car_222682222#1_23241821#0_000268a8" type="car" begin="0" end="3600" vehsPerHour="39.40" departLane="best" departPos="random" departSpeed="0" from="222682222#1" to="23241821#0"/>
  <flow id="car_222682222#1_198876042#0_000268a8" type="car" begin="0" end="3600" vehsPerHour="32.53" departLane="best" departPos="random" departSpeed="0" from="222682222#1" to="198876042#0"/>
  <flow id="motorcycle_222682222#1_193253427#0_000268a8" type="motorcycle" begin="0" end="3600" vehsPerHour="170.85" departLane="best" departPos="random" departSpeed="0" from="222682222#1" to="193253427#0"/>
  <flow id="motorcycle_222682222#1_198876043#0_000268a8" type="motorcycle" begin="0" end="3600" vehsPerHour="155.66" departLane="best" departPos="random" departSpeed="0" from="222682222#1" to="198876043#0"/>
  <flow id="motorcycle_222682222#1_28231434_000268a8" type="motorcycle" begin="0" end="3600" vehsPerHour="145.32" departLane="best" departPos="random" departSpeed="0" from="222682222#1" to="28231434"/>
  <flow id="motorcycle_222682222#1_23241821#0_000268a8" type="motorcycle" begin="0" end="3600" vehsPerHour="117.93" departLane="best" departPos="random" departSpeed="0" from="222682222#1" to="23241821#0"/>
  <flow id="motorcycle_222682222#1_198876042#0_000268a8" type="motorcycle" begin="0" end="3600" vehsPerHour="98.80" departLane="best" departPos="random" departSpeed="0" from="222682222#1" to="198876042#0"/>
  <flow id="car_193253433#2_198876043#0_000268a8" type="car" begin="0" end="3600" vehsPerHour="40.17" departLane="best" departPos="random" departSpeed="0" from="193253433#2" to="198876043#0"/>
  <flow id="car_193253433#2_28231434_000268a8" type="car" begin="0" end="3600" vehsPerHour="33.83" departLane="best" departPos="random" departSpeed="0" from="193253433#2" to="28231434"/>
  <flow id="car_193253433#2_23241821#0_000268a8" type="car" begin="0" end="3600" vehsPerHour="33.12" departLane="best" departPos="random" departSpeed="0" from="193253433#2" to="23241821#0"/>
  <flow id="car_193253433#2_198876042#0_000268a8" type="car" begin="0" end="3600" vehsPerHour="26.40" departLane="best" departPos="random" departSpeed="0" from="193253433#2" to="198876042#0"/>
  <flow id="car_193253433#2_193253427#0_000268a8" type="car" begin="0" end="3600" vehsPerHour="22.60" departLane="best" departPos="random" departSpeed="0" from="193253433#2" to="193253427#0"/>
  <flow id="motorcycle_193253433#2_198876043#0_000268a8" type="motorcycle" begin="0" end="3600" vehsPerHour="116.55" departLane="best" departPos="random" departSpeed="0" from="193253433#2" to="198876043#0"/>
  <flow id="motorcycle_193253433#2_28231434_000268a8" type="motorcycle" begin="0" end="3600" vehsPerHour="98.24" departLane="best" departPos="random" departSpeed="0" from="193253433#2" to="28231434"/>
  <flow id="motorcycle_193253433#2_23241821#0_000268a8" type="motorcycle" begin="0" end="3600" vehsPerHour="90.25" departLane="best" departPos="random" departSpeed="0" from="193253433#2" to="23241821#0"/>
  <flow id="motorcycle_193253433#2_198876042#0_000268a8" type="motorcycle" begin="0" end="3600" vehsPerHour="77.31" departLane="best" departPos="random" departSpeed="0" from="193253433#2" to="198876042#0"/>
  <flow id="motorcycle_193253433#2_193253427#0_000268a8" type="motorcycle" begin="0" end="3600" vehsPerHour="67.33" departLane="best" departPos="random" departSpeed="0" from="193253433#2" to="193253427#0"/>
  <flow id="car_198876045#1_28231434_000268a8" type="car" begin="0" end="3600" vehsPerHour="32.92" departLane="best" departPos="random" departSpeed="0" from="198876045#1" to="28231434"/>
  <flow id="car_198876045#1_23241821#0_000268a8" type="car" begin="0" end="3600" vehsPerHour="28.86" departLane="best" departPos="random" departSpeed="0" from="198876045#1" to="23241821#0"/>
  <flow id="car_198876045#1_198876042#0_000268a8" type="car" begin="0" end="3600" vehsPerHour="27.38" departLane="best" departPos="random" departSpeed="0" from="198876045#1" to="198876042#0"/>
  <flow id="car_198876045#1_193253427#0_000268a8" type="car" begin="0" end="3600" vehsPerHour="24.03" departLane="best" departPos="random" departSpeed="0" from="198876045#1" to="193253427#0"/>
  <flow id="car_198876045#1_198876043#2_000268a8" type="car" begin="0" end="3600" vehsPerHour="20.41" departLane="best" departPos="random" departSpeed="0" from="198876045#1" to="198876043#2"/>
  <flow id="motorcycle_198876045#1_28231434_000268a8" type="motorcycle" begin="0" end="3600" vehsPerHour="99.78" departLane="best" departPos="random" departSpeed="0" from="198876045#1" to="28231434"/>
  <flow id="motorcycle_198876045#1_23241821#0_000268a8" type="motorcycle" begin="0" end="3600" vehsPerHour="87.61" departLane="best" departPos="random" departSpeed="0" from="198876045#1" to="23241821#0"/>
  <flow id="motorcycle_198876045#1_198876042#0_000268a8" type="motorcycle" begin="0" end="3600" vehsPerHour="83.72" departLane="best" departPos="random" departSpeed="0" from="198876045#1" to="198876042#0"/>
  <flow id="motorcycle_198876045#1_193253427#0_000268a8" type="motorcycle" begin="0" end="3600" vehsPerHour="76.79" departLane="best" departPos="random" departSpeed="0" from="198876045#1" to="193253427#0"/>
  <flow id="motorcycle_198876045#1_198876043#2_000268a8" type="motorcycle" begin="0" end="3600" vehsPerHour="70.66" departLane="best" departPos="random" departSpeed="0" from="198876045#1" to="198876043#2"/>
  <flow id="car_-28231434_23241821#0_000268a8" type="car" begin="0" end="3600" vehsPerHour="22.62" departLane="best" departPos="random" departSpeed="0" from="-28231434" to="23241821#0"/>
  <flow id="car_-28231434_198876042#0_000268a8" type="car" begin="0" end="3600" vehsPerHour="21.14" departLane="best" departPos="random" departSpeed="0" from="-28231434" to="198876042#0"/>
  <flow id="car_-28231434_193253427#0_000268a8" type="car" begin="0" end="3600" vehsPerHour="16.60" departLane="best" departPos="random" departSpeed="0" from="-28231434" to="193253427#0"/>
  <flow id="car_-28231434_198876043#2_000268a8" type="car" begin="0" end="3600" vehsPerHour="16.25" departLane="best" departPos="random" departSpeed="0" from="-28231434" to="198876043#2"/>
  <flow id="car_-28231434_28231434_000268a8" type="car" begin="0" end="3600" vehsPerHour="13.30" departLane="best" departPos="random" departSpeed="0" from="-28231434" to="28231434"/>
  <flow id="motorcycle_-28231434_23241821#0_000268a8" type="motorcycle" begin="0" end="3600" vehsPerHour="70.00" departLane="best" departPos="random" departSpeed="0" from="-28231434" to="23241821#0"/>
  <flow id="motorcycle_-28231434_198876042#0_000268a8" type="motorcycle" begin="0" end="3600" vehsPerHour="63.06" departLane="best" departPos="random" departSpeed="0" from="-28231434" to="198876042#0"/>
  <flow id="motorcycle_-28231434_193253427#0_000268a8" type="motorcycle" begin="0" end="3600" vehsPerHour="54.59" departLane="best" departPos="random" departSpeed="0" from="-28231434" to="193253427#0"/>
  <flow id="motorcycle_-28231434_198876043#2_000268a8" type="motorcycle" begin="0" end="3600" vehsPerHour="48.25" departLane="best" departPos="random" departSpeed="0" from="-28231434" to="198876043#2"/>
  <flow id="motorcycle_-28231434_28231434_000268a8" type="motorcycle" begin="0" end="3600" vehsPerHour="42.07" departLane="best" departPos="random" departSpeed="0" from="-28231434" to="28231434"/>
  <flow id="car_-55029244#0_198876042#0_000268a8" type="car" begin="0" end="3600" vehsPerHour="27.76" departLane="best" departPos="random" departSpeed="0" from="-55029244#0" to="198876042#0"/>
  <flow id="car_-55029244#0_193253427#0_000268a8" type="car" begin="0" end="3600" vehsPerHour="24.07" departLane="best" departPos="random" departSpeed="0" from="-55029244#0" to="193253427#0"/>
  <flow id="car_-55029244#0_198876043#2_000268a8" type="car" begin="0" end="3600" vehsPerHour="19.92" departLane="best" departPos="random" departSpeed="0" from="-55029244#0" to="198876043#2"/>
  <flow id="car_-55029244#0_28231434_000268a8" type="car" begin="0" end="3600" vehsPerHour="16.26" departLane="best" departPos="random" departSpeed="0" from="-55029244#0" to="28231434"/>
  <flow id="car_-55029244#0_23241821#0_000268a8" type="car" begin="0" end="3600" vehsPerHour="13.55" departLane="best" departPos="random" departSpeed="0" from="-55029244#0" to="23241821#0"/>
  <flow id="motorcycle_-55029244#0_198876042#0_000268a8" type="motorcycle" begin="0" end="3600" vehsPerHour="83.44" departLane="best" departPos="random" departSpeed="0" from="-55029244#0" to="198876042#0"/>
  <flow id="motorcycle_-55029244#0_193253427#0_000268a8" type="motorcycle" begin="0" end="3600" vehsPerHour="67.91" departLane="best" departPos="random" departSpeed="0" from="-55029244#0" to="193253427#0"/>
  <flow id="motorcycle_-55029244#0_198876043#2_000268a8" type="motorcycle" begin="0" end="3600" vehsPerHour="60.87" departLane="best" departPos="random" departSpeed="0" from="-55029244#0" to="198876043#2"/>
  <flow id="motorcycle_-55029244#0_28231434_000268a8" type="motorcycle" begin="0" end="3600" vehsPerHour="56.38" departLane="best" departPos="random" departSpeed="0" from="-55029244#0" to="28231434"/>
  <flow id="motorcycle_-55029244#0_23241821#0_000268a8" type="motorcycle" begin="0" end="3600" vehsPerHour="49.13" departLane="best" departPos="random" departSpeed="0" from="-55029244#0" to="23241821#0"/>
  <flow id="car_34241530#0_198876042#0_000268a8" type="car" begin="0" end="3600" vehsPerHour="27.00" departLane="best" departPos="random" departSpeed="0" from="34241530#0" to="198876042#0"/>
  <flow id="car_34241530#0_193253427#0_000268a8" type="car" begin="0" end="3600" vehsPerHour="22.91" departLane="best" departPos="random" departSpeed="0" from="34241530#0" to="193253427#0"/>
  <flow id="car_34241530#0_198876043#2_000268a8" type="car" begin="0" end="3600" vehsPerHour="20.79" departLane="best" departPos="random" departSpeed="0" from="34241530#0" to="198876043#2"/>
  <flow id="car_34241530#0_28231434_000268a8" type="car" begin="0" end="3600" vehsPerHour="17.37" departLane="best" departPos="random" departSpeed="0" from="34241530#0" to="28231434"/>
  <flow id="car_34241530#0_23241821#0_000268a8" type="car" begin="0" end="3600" vehsPerHour="13.80" departLane="best" departPos="random" departSpeed="0" from="34241530#0" to="23241821#0"/>
  <flow id="motorcycle_34241530#0_198876042#0_000268a8" type="motorcycle" begin="0" end="3600" vehsPerHour="79.61" departLane="best" departPos="random" departSpeed="0" from="34241530#0" to="198876042#0"/>
  <flow id="motorcycle_34241530#0_193253427#0_000268a8" type="motorcycle" begin="0" end="3600" vehsPerHour="66.16" departLane="best" departPos="random" departSpeed="0" from="34241530#0" to="193253427#0"/>
  <flow id="motorcycle_34241530#0_198876043#2_000268a8" type="motorcycle" begin="0" end="3600" vehsPerHour="62.11" departLane="best" departPos="random" departSpeed="0" from="34241530#0" to="198876043#2"/>
  <flow id="motorcycle_34241530#0_28231434_000268a8" type="motorcycle" begin="0" end="3600" vehsPerHour="53.77" departLane="best" departPos="random" departSpeed="0" from="34241530#0" to="28231434"/>
  <flow id="motorcycle_34241530#0_23241821#0_000268a8" type="motorcycle" begin="0" end="3600" vehsPerHour="46.85" departLane="best" departPos="random" departSpeed="0" from="34241530#0" to="23241821#0"/>
  <flow id="truck_34241530#0_198876042#0_000268a8" type="truck" begin="0" end="3600" vehsPerHour="11.57" departLane="best" departPos="random" departSpeed="0" from="34241530#0" to="198876042#0"/>
</routes>
