<routes>
<vType id="car" vClass="passenger" accel="2.6" decel="4.5" sigma="0.5" length="5.0" maxSpeed="13.9"/>
<vType id="motorcycle" vClass="motorcycle" accel="3.0" decel="5.0" sigma="0.5" length="2.0" maxSpeed="14.0"/>
<vType id="truck" vClass="truck" accel="1.2" decel="3.5" sigma="0.5" length="12.0" maxSpeed="10.0"/>

  <flow id="car_222682222#1_193253427#0_000233e4" type="car" begin="0" end="3600" vehsPerHour="61.14" departLane="best" departPos="random" departSpeed="0" from="222682222#1" to="193253427#0"/>
  <flow id="car_222682222#1_198876043#0_000233e4" type="car" begin="0" end="3600" vehsPerHour="50.27" departLane="best" departPos="random" departSpeed="0" from="222682222#1" to="198876043#0"/>
  <flow id="car_222682222#1_28231434_000233e4" type="car" begin="0" end="3600" vehsPerHour="51.80" departLane="best" departPos="random" departSpeed="0" from="222682222#1" to="28231434"/>
  <flow id="car_222682222#1_23241821#0_000233e4" type="car" begin="0" end="3600" vehsPerHour="38.91" departLane="best" departPos="random" departSpeed="0" from="222682222#1" to="23241821#0"/>
  <flow id="car_222682222#1_198876042#0_000233e4" type="car" begin="0" end="3600" vehsPerHour="33.07" departLane="best" departPos="random" departSpeed="0" from="222682222#1" to="198876042#0"/>
  <flow id="motorcycle_222682222#1_193253427#0_000233e4" type="motorcycle" begin="0" end="3600" vehsPerHour="183.98" departLane="best" departPos="random" departSpeed="0" from="222682222#1" to="193253427#0"/>
  <flow id="motorcycle_222682222#1_198876043#0_000233e4" type="motorcycle" begin="0" end="3600" vehsPerHour="148.60" departLane="best" departPos="random" departSpeed="0" from="222682222#1" to="198876043#0"/>
  <flow id="motorcycle_222682222#1_28231434_000233e4" type="motorcycle" begin="0" end="3600" vehsPerHour="139.88" departLane="best" departPos="random" departSpeed="0" from="222682222#1" to="28231434"/>
  <flow id="motorcycle_222682222#1_23241821#0_000233e4" type="motorcycle" begin="0" end="3600" vehsPerHour="111.44" departLane="best" departPos="random" departSpeed="0" from="222682222#1" to="23241821#0"/>
  <flow id="motorcycle_222682222#1_198876042#0_000233e4" type="motorcycle" begin="0" end="3600" vehsPerHour="105.19" departLane="best" departPos="random" departSpeed="0" from="222682222#1" to="198876042#0"/>
  <flow id="car_193253433#2_198876043#0_000233e4" type="car" begin="0" end="3600" vehsPerHour="39.55" departLane="best" departPos="random" departSpeed="0" from="193253433#2" to="198876043#0"/>
  <flow id="car_193253433#2_28231434_000233e4" type="car" begin="0" end="3600" vehsPerHour="34.19" departLane="best" departPos="random" departSpeed="0" from="193253433#2" to="28231434"/>
  <flow id="car_193253433#2_23241821#0_000233e4" type="car" begin="0" end="3600" vehsPerHour="32.13" departLane="best" departPos="random" departSpeed="0" from="193253433#2" to="23241821#0"/>
  <flow id="car_193253433#2_198876042#0_000233e4" type="car" begin="0" end="3600" vehsPerHour="26.51" departLane="best" departPos="random" departSpeed="0" from="193253433#2" to="198876042#0"/>
  <flow id="car_193253433#2_193253427#0_000233e4" type="car" begin="0" end="3600" vehsPerHour="22.98" departLane="best" departPos="random" departSpeed="0" from="193253433#2" to="193253427#0"/>
  <flow id="motorcycle_193253433#2_198876043#0_000233e4" type="motorcycle" begin="0" end="3600" vehsPerHour="112.15" departLane="best" departPos="random" departSpeed="0" from="193253433#2" to="198876043#0"/>
  <flow id="motorcycle_193253433#2_28231434_000233e4" type="motorcycle" begin="0" end="3600" vehsPerHour="105.74" departLane="best" departPos="random" departSpeed="0" from="193253433#2" to="28231434"/>
  <flow id="motorcycle_193253433#2_23241821#0_000233e4" type="motorcycle" begin="0" end="3600" vehsPerHour="95.20" departLane="best" departPos="random" departSpeed="0" from="193253433#2" to="23241821#0"/>
  <flow id="motorcycle_193253433#2_198876042#0_000233e4" type="motorcycle" begin="0" end="3600" vehsPerHour="82.92" departLane="best" departPos="random" departSpeed="0" from="193253433#2" to="198876042#0"/>
  <flow id="motorcycle_193253433#2_193253427#0_000233e4" type="motorcycle" begin="0" end="3600" vehsPerHour="69.26" departLane="best" departPos="random" departSpeed="0" from="193253433#2" to="193253427#0"/>
  <flow id="car_198876045#1_28231434_000233e4" type="car" begin="0" end="3600" vehsPerHour="32.20" departLane="best" departPos="random" departSpeed="0" from="198876045#1" to="28231434"/>
  <flow id="car_198876045#1_23241821#0_000233e4" type="car" begin="0" end="3600" vehsPerHour="30.43" departLane="best" departPos="random" departSpeed="0" from="198876045#1" to="23241821#0"/>
  <flow id="car_198876045#1_198876042#0_000233e4" type="car" begin="0" end="3600" vehsPerHour="27.75" departLane="best" departPos="random" departSpeed="0" from="198876045#1" to="198876042#0"/>
  <flow id="car_198876045#1_193253427#0_000233e4" type="car" begin="0" end="3600" vehsPerHour="22.97" departLane="best" departPos="random" departSpeed="0" from="198876045#1" to="193253427#0"/>
  <flow id="car_198876045#1_198876043#2_000233e4" type="car" begin="0" end="3600" vehsPerHour="20.99" departLane="best" departPos="random" departSpeed="0" from="198876045#1" to="198876043#2"/>
  <flow id="motorcycle_198876045#1_28231434_000233e4" type="motorcycle" begin="0" end="3600" vehsPerHour="100.48" departLane="best" departPos="random" departSpeed="0" from="198876045#1" to="28231434"/>
  <flow id="motorcycle_198876045#1_23241821#0_000233e4" type="motorcycle" begin="0" end="3600" vehsPerHour="84.07" departLane="best" departPos="random" departSpeed="0" from="198876045#1" to="23241821#0"/>
  <flow id="motorcycle_198876045#1_198876042#0_000233e4" type="motorcycle" begin="0" end="3600" vehsPerHour="83.66" departLane="best" departPos="random" departSpeed="0" from="198876045#1" to="198876042#0"/>
  <flow id="motorcycle_198876045#1_193253427#0_000233e4" type="motorcycle" begin="0" end="3600" vehsPerHour="73.50" departLane="best" departPos="random" departSpeed="0" from="198876045#1" to="193253427#0"/>
  <flow id="motorcycle_198876045#1_198876043#2_000233e4" type="motorcycle" begin="0" end="3600" vehsPerHour="67.51" departLane="best" departPos="random" departSpeed="0" from="198876045#1" to="198876043#2"/>
  <flow id="car_-28231434_23241821#0_000233e4" type="car" begin="0" end="3600" vehsPerHour="23.08" departLane="best" departPos="random" departSpeed="0" from="-28231434" to="23241821#0"/>
  <flow id="car_-28231434_198876042#0_000233e4" type="car" begin="0" end="3600" vehsPerHour="20.65" departLane="best" departPos="random" departSpeed="0" from="-28231434" to="198876042#0"/>
  <flow id="car_-28231434_193253427#0_000233e4" type="car" begin="0" end="3600" vehsPerHour="17.16" departLane="best" departPos="random" departSpeed="0" from="-28231434" to="193253427#0"/>
  <flow id="car_-28231434_198876043#2_000233e4" type="car" begin="0" end="3600" vehsPerHour="16.17" departLane="best" departPos="random" departSpeed="0" from="-28231434" to="198876043#2"/>
  <flow id="car_-28231434_28231434_000233e4" type="car" begin="0" end="3600" vehsPerHour="13.54" departLane="best" departPos="random" departSpeed="0" from="-28231434" to="28231434"/>
  <flow id="motorcycle_-28231434_23241821#0_000233e4" type="motorcycle" begin="0" end="3600" vehsPerHour="67.16" departLane="best" departPos="random" departSpeed="0" from="-28231434" to="23241821#0"/>
  <flow id="motorcycle_-28231434_198876042#0_000233e4" type="motorcycle" begin="0" end="3600" vehsPerHour="60.55" departLane="best" departPos="random" departSpeed="0" from="-28231434" to="198876042#0"/>
  <flow id="motorcycle_-28231434_193253427#0_000233e4" type="motorcycle" begin="0" end="3600" vehsPerHour="54.55" departLane="best" departPos="random" departSpeed="0" from="-28231434" to="193253427#0"/>
  <flow id="motorcycle_-28231434_198876043#2_000233e4" type="motorcycle" begin="0" end="3600" vehsPerHour="46.32" departLane="best" departPos="random" departSpeed="0" from="-28231434" to="198876043#2"/>
  <flow id="motorcycle_-28231434_28231434_000233e4" type="motorcycle" begin="0" end="3600" vehsPerHour="40.08" departLane="best" departPos="random" departSpeed="0" from="-28231434" to="28231434"/>
  <flow id="car_-55029244#0_198876042#0_000233e4" type="car" begin="0" end="3600" vehsPerHour="27.87" departLane="best" departPos="random" departSpeed="0" from="-55029244#0" to="198876042#0"/>
  <flow id="car_-55029244#0_193253427#0_000233e4" type="car" begin="0" end="3600" vehsPerHour="24.12" departLane="best" departPos="random" departSpeed="0" from="-55029244#0" to="193253427#0"/>
  <flow id="car_-55029244#0_198876043#2_000233e4" type="car" begin="0" end="3600" vehsPerHour="19.34" departLane="best" departPos="random" departSpeed="0" from="-55029244#0" to="198876043#2"/>
  <flow id="car_-55029244#0_28231434_000233e4" type="car" begin="0" end="3600" vehsPerHour="16.10" departLane="best" departPos="random" departSpeed="0" from="-55029244#0" to="28231434"/>
  <flow id="car_-55029244#0_23241821#0_000233e4" type="car" begin="0" end="3600" vehsPerHour="13.17" departLane="best" departPos="random" departSpeed="0" from="-55029244#0" to="23241821#0"/>
  <flow id="motorcycle_-55029244#0_198876042#0_000233e4" type="motorcycle" begin="0" end="3600" vehsPerHour="79.28" departLane="best" departPos="random" departSpeed="0" from="-55029244#0" to="198876042#0"/>
  <flow id="motorcycle_-55029244#0_193253427#0_000233e4" type="motorcycle" begin="0" end="3600" vehsPerHour="69.47" departLane="best" departPos="random" departSpeed="0" from="-55029244#0" to="193253427#0"/>
  <flow id="motorcycle_-55029244#0_198876043#2_000233e4" type="motorcycle" begin="0" end="3600" vehsPerHour="59.90" departLane="best" departPos="random" departSpeed="0" from="-55029244#0" to="198876043#2"/>
  <flow id="motorcycle_-55029244#0_28231434_000233e4" type="motorcycle" begin="0" end="3600" vehsPerHour="52.22" departLane="best" departPos="random" departSpeed="0" from="-55029244#0" to="28231434"/>
  <flow id="motorcycle_-55029244#0_23241821#0_000233e4" type="motorcycle" begin="0" end="3600" vehsPerHour="45.84" departLane="best" departPos="random" departSpeed="0" from="-55029244#0" to="23241821#0"/>
  <flow id="car_34241530#0_198876042#0_000233e4" type="car" begin="0" end="3600" vehsPerHour="28.13" departLane="best" departPos="random" departSpeed="0" from="34241530#0" to="198876042#0"/>
  <flow id="car_34241530#0_193253427#0_000233e4" type="car" begin="0" end="3600" vehsPerHour="23.53" departLane="best" departPos="random" departSpeed="0" from="34241530#0" to="193253427#0"/>
  <flow id="car_34241530#0_198876043#2_000233e4" type="car" begin="0" end="3600" vehsPerHour="20.24" departLane="best" departPos="random" departSpeed="0" from="34241530#0" to="198876043#2"/>
  <flow id="car_34241530#0_28231434_000233e4" type="car" begin="0" end="3600" vehsPerHour="16.44" departLane="best" departPos="random" departSpeed="0" from="34241530#0" to="28231434"/>
  <flow id="car_34241530#0_23241821#0_000233e4" type="car" begin="0" end="3600" vehsPerHour="14.14" departLane="best" departPos="random" departSpeed="0" from="34241530#0" to="23241821#0"/>
  <flow id="motorcycle_34241530#0_198876042#0_000233e4" type="motorcycle" begin="0" end="3600" vehsPerHour="78.07" departLane="best" departPos="random" departSpeed="0" from="34241530#0" to="198876042#0"/>
  <flow id="motorcycle_34241530#0_193253427#0_000233e4" type="motorcycle" begin="0" end="3600" vehsPerHour="64.04" departLane="best" departPos="random" departSpeed="0" from="34241530#0" to="193253427#0"/>
  <flow id="motorcycle_34241530#0_198876043#2_000233e4" type="motorcycle" begin="0" end="3600" vehsPerHour="60.41" departLane="best" departPos="random" departSpeed="0" from="34241530#0" to="198876043#2"/>
  <flow id="motorcycle_34241530#0_28231434_000233e4" type="motorcycle" begin="0" end="3600" vehsPerHour="53.74" departLane="best" departPos="random" departSpeed="0" from="34241530#0" to="28231434"/>
  <flow id="motorcycle_34241530#0_23241821#0_000233e4" type="motorcycle" begin="0" end="3600" vehsPerHour="45.82" departLane="best" departPos="random" departSpeed="0" from="34241530#0" to="23241821#0"/>
  <flow id="truck_34241530#0_198876042#0_000233e4" type="truck" begin="0" end="3600" vehsPerHour="12.14" departLane="best" departPos="random" departSpeed="0" from="34241530#0" to="198876042#0"/>
</routes>
