<routes>
<vType id="car" vClass="passenger" accel="2.6" decel="4.5" sigma="0.5" length="5.0" maxSpeed="13.9"/>
<vType id="motorcycle" vClass="motorcycle" accel="3.0" decel="5.0" sigma="0.5" length="2.0" maxSpeed="14.0"/>
<vType id="truck" vClass="truck" accel="1.2" decel="3.5" sigma="0.5" length="12.0" maxSpeed="10.0"/>

  <flow id="car_222682222#1_193253427#0_000acfb5" type="car" begin="0" end="3600" vehsPerHour="59.99" departLane="best" departPos="random" departSpeed="0" from="222682222#1" to="193253427#0"/>
  <flow id="car_222682222#1_198876043#0_000acfb5" type="car" begin="0" end="3600" vehsPerHour="50.80" departLane="best" departPos="random" departSpeed="0" from="222682222#1" to="198876043#0"/>
  <flow id="car_222682222#1_28231434_000acfb5" type="car" begin="0" end="3600" vehsPerHour="52.03" departLane="best" departPos="random" departSpeed="0" from="222682222#1" to="28231434"/>
  <flow id="car_222682222#1_23241821#0_000acfb5" type="car" begin="0" end="3600" vehsPerHour="42.25" departLane="best" departPos="random" departSpeed="0" from="222682222#1" to="23241821#0"/>
  <flow id="car_222682222#1_198876042#0_000acfb5" type="car" begin="0" end="3600" vehsPerHour="33.03" departLane="best" departPos="random" departSpeed="0" from="222682222#1" to="198876042#0"/>
  <flow id="motorcycle_222682222#1_193253427#0_000acfb5" type="motorcycle" begin="0" end="3600" vehsPerHour="167.39" departLane="best" departPos="random" departSpeed="0" from="222682222#1" to="193253427#0"/>
  <flow id="motorcycle_222682222#1_198876043#0_000acfb5" type="motorcycle" begin="0" end="3600" vehsPerHour="147.66" departLane="best" departPos="random" departSpeed="0" from="222682222#1" to="198876043#0"/>
  <flow id="motorcycle_222682222#1_28231434_000acfb5" type="motorcycle" begin="0" end="3600" vehsPerHour="137.74" departLane="best" departPos="random" departSpeed="0" from="222682222#1" to="28231434"/>
  <flow id="motorcycle_222682222#1_23241821#0_000acfb5" type="motorcycle" begin="0" end="3600" vehsPerHour="115.79" departLane="best" departPos="random" departSpeed="0" from="222682222#1" to="23241821#0"/>
  <flow id="motorcycle_222682222#1_198876042#0_000acfb5" type="motorcycle" begin="0" end="3600" vehsPerHour="104.69" departLane="best" departPos="random" departSpeed="0" from="222682222#1" to="198876042#0"/>
  <flow id="car_193253433#2_198876043#0_000acfb5" type="car" begin="0" end="3600" vehsPerHour="41.66" departLane="best" departPos="random" departSpeed="0" from="193253433#2" to="198876043#0"/>
  <flow id="car_193253433#2_28231434_000acfb5" type="car" begin="0" end="3600" vehsPerHour="33.06" departLane="best" departPos="random" departSpeed="0" from="193253433#2" to="28231434"/>
  <flow id="car_193253433#2_23241821#0_000acfb5" type="car" begin="0" end="3600" vehsPerHour="33.04" departLane="best" departPos="random" departSpeed="0" from="193253433#2" to="23241821#0"/>
  <flow id="car_193253433#2_198876042#0_000acfb5" type="car" begin="0" end="3600" vehsPerHour="26.45" departLane="best" departPos="random" departSpeed="0" from="193253433#2" to="198876042#0"/>
  <flow id="car_193253433#2_193253427#0_000acfb5" type="car" begin="0" end="3600" vehsPerHour="22.79" departLane="best" departPos="random" departSpeed="0" from="193253433#2" to="193253427#0"/>
  <flow id="motorcycle_193253433#2_198876043#0_000acfb5" type="motorcycle" begin="0" end="3600" vehsPerHour="120.06" departLane="best" departPos="random" departSpeed="0" from="193253433#2" to="198876043#0"/>
  <flow id="motorcycle_193253433#2_28231434_000acfb5" type="motorcycle" begin="0" end="3600" vehsPerHour="103.76" departLane="best" departPos="random" departSpeed="0" from="193253433#2" to="28231434"/>
  <flow id="motorcycle_193253433#2_23241821#0_000acfb5" type="motorcycle" begin="0" end="3600" vehsPerHour="89.72" departLane="best" departPos="random" departSpeed="0" from="193253433#2" to="23241821#0"/>
  <flow id="motorcycle_193253433#2_198876042#0_000acfb5" type="motorcycle" begin="0" end="3600" vehsPerHour="79.33" departLane="best" departPos="random" departSpeed="0" from="193253433#2" to="198876042#0"/>
  <flow id="motorcycle_193253433#2_193253427#0_000acfb5" type="motorcycle" begin="0" end="3600" vehsPerHour="64.21" departLane="best" departPos="random" departSpeed="0" from="193253433#2" to="193253427#0"/>
  <flow id="car_198876045#1_28231434_000acfb5" type="car" begin="0" end="3600" vehsPerHour="34.42" departLane="best" departPos="random" departSpeed="0" from="198876045#1" to="28231434"/>
  <flow id="car_198876045#1_23241821#0_000acfb5" type="car" begin="0" end="3600" vehsPerHour="30.91" departLane="best" departPos="random" departSpeed="0" from="198876045#1" to="23241821#0"/>
  <flow id="car_198876045#1_198876042#0_000acfb5" type="car" begin="0" end="3600" vehsPerHour="28.24" departLane="best" departPos="random" departSpeed="0" from="198876045#1" to="198876042#0"/>
  <flow id="car_198876045#1_193253427#0_000acfb5" type="car" begin="0" end="3600" vehsPerHour="24.74" departLane="best" departPos="random" departSpeed="0" from="198876045#1" to="193253427#0"/>
  <flow id="car_198876045#1_198876043#2_000acfb5" type="car" begin="0" end="3600" vehsPerHour="20.78" departLane="best" departPos="random" departSpeed="0" from="198876045#1" to="198876043#2"/>
  <flow id="motorcycle_198876045#1_28231434_000acfb5" type="motorcycle" begin="0" end="3600" vehsPerHour="99.88" departLane="best" departPos="random" departSpeed="0" from="198876045#1" to="28231434"/>
  <flow id="motorcycle_198876045#1_23241821#0_000acfb5" type="motorcycle" begin="0" end="3600" vehsPerHour="87.87" departLane="best" departPos="random" departSpeed="0" from="198876045#1" to="23241821#0"/>
  <flow id="motorcycle_198876045#1_198876042#0_000acfb5" type="motorcycle" begin="0" end="3600" vehsPerHour="84.30" departLane="best" departPos="random" departSpeed="0" from="198876045#1" to="198876042#0"/>
  <flow id="motorcycle_198876045#1_193253427#0_000acfb5" type="motorcycle" begin="0" end="3600" vehsPerHour="74.58" departLane="best" departPos="random" departSpeed="0" from="198876045#1" to="193253427#0"/>
  <flow id="motorcycle_198876045#1_198876043#2_000acfb5" type="motorcycle" begin="0" end="3600" vehsPerHour="66.84" departLane="best" departPos="random" departSpeed="0" from="198876045#1" to="198876043#2"/>
  <flow id="car_-28231434_23241821#0_000acfb5" type="car" begin="0" end="3600" vehsPerHour="23.88" departLane="best" departPos="random" departSpeed="0" from="-28231434" to="23241821#0"/>
  <flow id="car_-28231434_198876042#0_000acfb5" type="car" begin="0" end="3600" vehsPerHour="20.71" departLane="best" departPos="random" departSpeed="0" from="-28231434" to="198876042#0"/>
  <flow id="car_-28231434_193253427#0_000acfb5" type="car" begin="0" end="3600" vehsPerHour="16.53" departLane="best" departPos="random" departSpeed="0" from="-28231434" to="193253427#0"/>
  <flow id="car_-28231434_198876043#2_000acfb5" type="car" begin="0" end="3600" vehsPerHour="16.67" departLane="best" departPos="random" departSpeed="0" from="-28231434" to="198876043#2"/>
  <flow id="car_-28231434_28231434_000acfb5" type="car" begin="0" end="3600" vehsPerHour="13.28" departLane="best" departPos="random" departSpeed="0" from="-28231434" to="28231434"/>
  <flow id="motorcycle_-28231434_23241821#0_000acfb5" type="motorcycle" begin="0" end="3600" vehsPerHour="68.66" departLane="best" departPos="random" departSpeed="0" from="-28231434" to="23241821#0"/>
  <flow id="motorcycle_-28231434_198876042#0_000acfb5" type="motorcycle" begin="0" end="3600" vehsPerHour="61.23" departLane="best" departPos="random" departSpeed="0" from="-28231434" to="198876042#0"/>
  <flow id="motorcycle_-28231434_193253427#0_000acfb5" type="motorcycle" begin="0" end="3600" vehsPerHour="56.12" departLane="best" departPos="random" departSpeed="0" from="-28231434" to="193253427#0"/>
  <flow id="motorcycle_-28231434_198876043#2_000acfb5" type="motorcycle" begin="0" end="3600" vehsPerHour="47.28" departLane="best" departPos="random" departSpeed="0" from="-28231434" to="198876043#2"/>
  <flow id="motorcycle_-28231434_28231434_000acfb5" type="motorcycle" begin="0" end="3600" vehsPerHour="39.02" departLane="best" departPos="random" departSpeed="0" from="-28231434" to="28231434"/>
  <flow id="car_-55029244#0_198876042#0_000acfb5" type="car" begin="0" end="3600" vehsPerHour="27.15" departLane="best" departPos="random" departSpeed="0" from="-55029244#0" to="198876042#0"/>
  <flow id="car_-55029244#0_193253427#0_000acfb5" type="car" begin="0" end="3600" vehsPerHour="23.58" departLane="best" departPos="random" departSpeed="0" from="-55029244#0" to="193253427#0"/>
  <flow id="car_-55029244#0_198876043#2_000acfb5" type="car" begin="0" end="3600" vehsPerHour="20.76" departLane="best" departPos="random" departSpeed="0" from="-55029244#0" to="198876043#2"/>
  <flow id="car_-55029244#0_28231434_000acfb5" type="car" begin="0" end="3600" vehsPerHour="16.20" departLane="best" departPos="random" departSpeed="0" from="-55029244#0" to="28231434"/>
  <flow id="car_-55029244#0_23241821#0_000acfb5" type="car" begin="0" end="3600" vehsPerHour="13.78" departLane="best" departPos="random" departSpeed="0" from="-55029244#0" to="23241821#0"/>
  <flow id="motorcycle_-55029244#0_198876042#0_000acfb5" type="motorcycle" begin="0" end="3600" vehsPerHour="78.54" departLane="best" departPos="random" departSpeed="0" from="-55029244#0" to="198876042#0"/>
  <flow id="motorcycle_-55029244#0_193253427#0_000acfb5" type="motorcycle" begin="0" end="3600" vehsPerHour="70.53" departLane="best" departPos="random" departSpeed="0" from="-55029244#0" to="193253427#0"/>
  <flow id="motorcycle_-55029244#0_198876043#2_000acfb5" type="motorcycle" begin="0" end="3600" vehsPerHour="62.12" departLane="best" departPos="random" departSpeed="0" from="-55029244#0" to="198876043#2"/>
  <flow id="motorcycle_-55029244#0_28231434_000acfb5" type="motorcycle" begin="0" end="3600" vehsPerHour="53.05" departLane="best" departPos="random" departSpeed="0" from="-55029244#0" to="28231434"/>
  <flow id="motorcycle_-55029244#0_23241821#0_000acfb5" type="motorcycle" begin="0" end="3600" vehsPerHour="49.31" departLane="best" departPos="random" departSpeed="0" from="-55029244#0" to="23241821#0"/>
  <flow id="car_34241530#0_198876042#0_000acfb5" type="car" begin="0" end="3600" vehsPerHour="26.62" departLane="best" departPos="random" departSpeed="0" from="34241530#0" to="198876042#0"/>
  <flow id="car_34241530#0_193253427#0_000acfb5" type="car" begin="0" end="3600" vehsPerHour="23.23" departLane="best" departPos="random" departSpeed="0" from="34241530#0" to="193253427#0"/>
  <flow id="car_34241530#0_198876043#2_000acfb5" type="car" begin="0" end="3600" vehsPerHour="20.42" departLane="best" departPos="random" departSpeed="0" from="34241530#0" to="198876043#2"/>
  <flow id="car_34241530#0_28231434_000acfb5" type="car" begin="0" end="3600" vehsPerHour="16.33" departLane="best" departPos="random" departSpeed="0" from="34241530#0" to="28231434"/>
  <flow id="car_34241530#0_23241821#0_000acfb5" type="car" begin="0" end="3600" vehsPerHour="12.81" departLane="best" departPos="random" departSpeed="0" from="34241530#0" to="23241821#0"/>
  <flow id="motorcycle_34241530#0_198876042#0_000acfb5" type="motorcycle" begin="0" end="3600" vehsPerHour="78.59" departLane="best" departPos="random" departSpeed="0" from="34241530#0" to="198876042#0"/>
  <flow id="motorcycle_34241530#0_193253427#0_000acfb5" type="motorcycle" begin="0" end="3600" vehsPerHour="66.11" departLane="best" departPos="random" departSpeed="0" from="34241530#0" to="193253427#0"/>
  <flow id="motorcycle_34241530#0_198876043#2_000acfb5" type="motorcycle" begin="0" end="3600" vehsPerHour="58.21" departLane="best" departPos="random" departSpeed="0" from="34241530#0" to="198876043#2"/>
  <flow id="motorcycle_34241530#0_28231434_000acfb5" type="motorcycle" begin="0" end="3600" vehsPerHour="52.13" departLane="best" departPos="random" departSpeed="0" from="34241530#0" to="28231434"/>
  <flow id="motorcycle_34241530#0_23241821#0_000acfb5" type="motorcycle" begin="0" end="3600" vehsPerHour="48.34" departLane="best" departPos="random" departSpeed="0" from="34241530#0" to="23241821#0"/>
  <flow id="truck_34241530#0_198876042#0_000acfb5" type="truck" begin="0" end="3600" vehsPerHour="11.67" departLane="best" departPos="random" departSpeed="0" from="34241530#0" to="198876042#0"/>
</routes>
