<routes>
<vType id="car" vClass="passenger" accel="2.6" decel="4.5" sigma="0.5" length="5.0" maxSpeed="13.9"/>
<vType id="motorcycle" vClass="motorcycle" accel="3.0" decel="5.0" sigma="0.5" length="2.0" maxSpeed="14.0"/>
<vType id="truck" vClass="truck" accel="1.2" decel="3.5" sigma="0.5" length="12.0" maxSpeed="10.0"/>

  <flow id="car_222682222#1_193253427#0_00089665" type="car" begin="0" end="3600" vehsPerHour="61.51" departLane="best" departPos="random" departSpeed="0" from="222682222#1" to="193253427#0"/>
  <flow id="car_222682222#1_198876043#0_00089665" type="car" begin="0" end="3600" vehsPerHour="50.87" departLane="best" departPos="random" departSpeed="0" from="222682222#1" to="198876043#0"/>
  <flow id="car_222682222#1_28231434_00089665" type="car" begin="0" end="3600" vehsPerHour="50.92" departLane="best" departPos="random" departSpeed="0" from="222682222#1" to="28231434"/>
  <flow id="car_222682222#1_23241821#0_00089665" type="car" begin="0" end="3600" vehsPerHour="40.48" departLane="best" departPos="random" departSpeed="0" from="222682222#1" to="23241821#0"/>
  <flow id="car_222682222#1_198876042#0_00089665" type="car" begin="0" end="3600" vehsPerHour="32.09" departLane="best" departPos="random" departSpeed="0" from="222682222#1" to="198876042#0"/>
  <flow id="motorcycle_222682222#1_193253427#0_00089665" type="motorcycle" begin="0" end="3600" vehsPerHour="179.76" departLane="best" departPos="random" departSpeed="0" from="222682222#1" to="193253427#0"/>
  <flow id="motorcycle_222682222#1_198876043#0_00089665" type="motorcycle" begin="0" end="3600" vehsPerHour="159.88" departLane="best" departPos="random" departSpeed="0" from="222682222#1" to="198876043#0"/>
  <flow id="motorcycle_222682222#1_28231434_00089665" type="motorcycle" begin="0" end="3600" vehsPerHour="147.42" departLane="best" departPos="random" departSpeed="0" from="222682222#1" to="28231434"/>
  <flow id="motorcycle_222682222#1_23241821#0_00089665" type="motorcycle" begin="0" end="3600" vehsPerHour="114.17" departLane="best" departPos="random" departSpeed="0" from="222682222#1" to="23241821#0"/>
  <flow id="motorcycle_222682222#1_198876042#0_00089665" type="motorcycle" begin="0" end="3600" vehsPerHour="102.80" departLane="best" departPos="random" departSpeed="0" from="222682222#1" to="198876042#0"/>
  <flow id="car_193253433#2_198876043#0_00089665" type="car" begin="0" end="3600" vehsPerHour="41.29" departLane="best" departPos="random" departSpeed="0" from="193253433#2" to="198876043#0"/>
  <flow id="car_193253433#2_28231434_00089665" type="car" begin="0" end="3600" vehsPerHour="33.49" departLane="best" departPos="random" departSpeed="0" from="193253433#2" to="28231434"/>
  <flow id="car_193253433#2_23241821#0_00089665" type="car" begin="0" end="3600" vehsPerHour="35.12" departLane="best" departPos="random" departSpeed="0" from="193253433#2" to="23241821#0"/>
  <flow id="car_193253433#2_198876042#0_00089665" type="car" begin="0" end="3600" vehsPerHour="26.47" departLane="best" departPos="random" departSpeed="0" from="193253433#2" to="198876042#0"/>
  <flow id="car_193253433#2_193253427#0_00089665" type="car" begin="0" end="3600" vehsPerHour="24.37" departLane="best" departPos="random" departSpeed="0" from="193253433#2" to="193253427#0"/>
  <flow id="motorcycle_193253433#2_198876043#0_00089665" type="motorcycle" begin="0" end="3600" vehsPerHour="110.10" departLane="best" departPos="random" departSpeed="0" from="193253433#2" to="198876043#0"/>
  <flow id="motorcycle_193253433#2_28231434_00089665" type="motorcycle" begin="0" end="3600" vehsPerHour="104.16" departLane="best" departPos="random" departSpeed="0" from="193253433#2" to="28231434"/>
  <flow id="motorcycle_193253433#2_23241821#0_00089665" type="motorcycle" begin="0" end="3600" vehsPerHour="97.54" departLane="best" departPos="random" departSpeed="0" from="193253433#2" to="23241821#0"/>
  <flow id="motorcycle_193253433#2_198876042#0_00089665" type="motorcycle" begin="0" end="3600" vehsPerHour="81.06" departLane="best" departPos="random" departSpeed="0" from="193253433#2" to="198876042#0"/>
  <flow id="motorcycle_193253433#2_193253427#0_00089665" type="motorcycle" begin="0" end="3600" vehsPerHour="68.85" departLane="best" departPos="random" departSpeed="0" from="193253433#2" to="193253427#0"/>
  <flow id="car_198876045#1_28231434_00089665" type="car" begin="0" end="3600" vehsPerHour="34.78" departLane="best" departPos="random" departSpeed="0" from="198876045#1" to="28231434"/>
  <flow id="car_198876045#1_23241821#0_00089665" type="car" begin="0" end="3600" vehsPerHour="30.33" departLane="best" departPos="random" departSpeed="0" from="198876045#1" to="23241821#0"/>
  <flow id="car_198876045#1_198876042#0_00089665" type="car" begin="0" end="3600" vehsPerHour="27.51" departLane="best" departPos="random" departSpeed="0" from="198876045#1" to="198876042#0"/>
  <flow id="car_198876045#1_193253427#0_00089665" type="car" begin="0" end="3600" vehsPerHour="24.29" departLane="best" departPos="random" departSpeed="0" from="198876045#1" to="193253427#0"/>
  <flow id="car_198876045#1_198876043#2_00089665" type="car" begin="0" end="3600" vehsPerHour="21.05" departLane="best" departPos="random" departSpeed="0" from="198876045#1" to="198876043#2"/>
  <flow id="motorcycle_198876045#1_28231434_00089665" type="motorcycle" begin="0" end="3600" vehsPerHour="97.82" departLane="best" departPos="random" departSpeed="0" from="198876045#1" to="28231434"/>
  <flow id="motorcycle_198876045#1_23241821#0_00089665" type="motorcycle" begin="0" end="3600" vehsPerHour="90.70" departLane="best" departPos="random" departSpeed="0" from="198876045#1" to="23241821#0"/>
  <flow id="motorcycle_198876045#1_198876042#0_00089665" type="motorcycle" begin="0" end="3600" vehsPerHour="80.64" departLane="best" departPos="random" departSpeed="0" from="198876045#1" to="198876042#0"/>
  <flow id="motorcycle_198876045#1_193253427#0_00089665" type="motorcycle" begin="0" end="3600" vehsPerHour="76.84" departLane="best" departPos="random" departSpeed="0" from="198876045#1" to="193253427#0"/>
  <flow id="motorcycle_198876045#1_198876043#2_00089665" type="motorcycle" begin="0" end="3600" vehsPerHour="65.24" departLane="best" departPos="random" departSpeed="0" from="198876045#1" to="198876043#2"/>
  <flow id="car_-28231434_23241821#0_00089665" type="car" begin="0" end="3600" vehsPerHour="24.65" departLane="best" departPos="random" departSpeed="0" from="-28231434" to="23241821#0"/>
  <flow id="car_-28231434_198876042#0_00089665" type="car" begin="0" end="3600" vehsPerHour="20.43" departLane="best" departPos="random" departSpeed="0" from="-28231434" to="198876042#0"/>
  <flow id="car_-28231434_193253427#0_00089665" type="car" begin="0" end="3600" vehsPerHour="16.02" departLane="best" departPos="random" departSpeed="0" from="-28231434" to="193253427#0"/>
  <flow id="car_-28231434_198876043#2_00089665" type="car" begin="0" end="3600" vehsPerHour="16.94" departLane="best" departPos="random" departSpeed="0" from="-28231434" to="198876043#2"/>
  <flow id="car_-28231434_28231434_00089665" type="car" begin="0" end="3600" vehsPerHour="12.98" departLane="best" departPos="random" departSpeed="0" from="-28231434" to="28231434"/>
  <flow id="motorcycle_-28231434_23241821#0_00089665" type="motorcycle" begin="0" end="3600" vehsPerHour="69.52" departLane="best" departPos="random" departSpeed="0" from="-28231434" to="23241821#0"/>
  <flow id="motorcycle_-28231434_198876042#0_00089665" type="motorcycle" begin="0" end="3600" vehsPerHour="59.66" departLane="best" departPos="random" departSpeed="0" from="-28231434" to="198876042#0"/>
  <flow id="motorcycle_-28231434_193253427#0_00089665" type="motorcycle" begin="0" end="3600" vehsPerHour="55.57" departLane="best" departPos="random" departSpeed="0" from="-28231434" to="193253427#0"/>
  <flow id="motorcycle_-28231434_198876043#2_00089665" type="motorcycle" begin="0" end="3600" vehsPerHour="49.14" departLane="best" departPos="random" departSpeed="0" from="-28231434" to="198876043#2"/>
  <flow id="motorcycle_-28231434_28231434_00089665" type="motorcycle" begin="0" end="3600" vehsPerHour="39.92" departLane="best" departPos="random" departSpeed="0" from="-28231434" to="28231434"/>
  <flow id="car_-55029244#0_198876042#0_00089665" type="car" begin="0" end="3600" vehsPerHour="28.04" departLane="best" departPos="random" departSpeed="0" from="-55029244#0" to="198876042#0"/>
  <flow id="car_-55029244#0_193253427#0_00089665" type="car" begin="0" end="3600" vehsPerHour="23.44" departLane="best" departPos="random" departSpeed="0" from="-55029244#0" to="193253427#0"/>
  <flow id="car_-55029244#0_198876043#2_00089665" type="car" begin="0" end="3600" vehsPerHour="20.87" departLane="best" departPos="random" departSpeed="0" from="-55029244#0" to="198876043#2"/>
  <flow id="car_-55029244#0_28231434_00089665" type="car" begin="0" end="3600" vehsPerHour="16.92" departLane="best" departPos="random" departSpeed="0" from="-55029244#0" to="28231434"/>
  <flow id="car_-55029244#0_23241821#0_00089665" type="car" begin="0" end="3600" vehsPerHour="12.83" departLane="best" departPos="random" departSpeed="0" from="-55029244#0" to="23241821#0"/>
  <flow id="motorcycle_-55029244#0_198876042#0_00089665" type="motorcycle" begin="0" end="3600" vehsPerHour="84.53" departLane="best" departPos="random" departSpeed="0" from="-55029244#0" to="198876042#0"/>
  <flow id="motorcycle_-55029244#0_193253427#0_00089665" type="motorcycle" begin="0" end="3600" vehsPerHour="69.71" departLane="best" departPos="random" departSpeed="0" from="-55029244#0" to="193253427#0"/>
  <flow id="motorcycle_-55029244#0_198876043#2_00089665" type="motorcycle" begin="0" end="3600" vehsPerHour="59.06" departLane="best" departPos="random" departSpeed="0" from="-55029244#0" to="198876043#2"/>
  <flow id="motorcycle_-55029244#0_28231434_00089665" type="motorcycle" begin="0" end="3600" vehsPerHour="53.94" departLane="best" departPos="random" departSpeed="0" from="-55029244#0" to="28231434"/>
  <flow id="motorcycle_-55029244#0_23241821#0_00089665" type="motorcycle" begin="0" end="3600" vehsPerHour="46.94" departLane="best" departPos="random" departSpeed="0" from="-55029244#0" to="23241821#0"/>
  <flow id="car_34241530#0_198876042#0_00089665" type="car" begin="0" end="3600" vehsPerHour="27.65" departLane="best" departPos="random" departSpeed="0" from="34241530#0" to="198876042#0"/>
  <flow id="car_34241530#0_193253427#0_00089665" type="car" begin="0" end="3600" vehsPerHour="24.22" departLane="best" departPos="random" departSpeed="0" from="34241530#0" to="193253427#0"/>
  <flow id="car_34241530#0_198876043#2_00089665" type="car" begin="0" end="3600" vehsPerHour="20.45" departLane="best" departPos="random" departSpeed="0" from="34241530#0" to="198876043#2"/>
  <flow id="car_34241530#0_28231434_00089665" type="car" begin="0" end="3600" vehsPerHour="17.60" departLane="best" departPos="random" departSpeed="0" from="34241530#0" to="28231434"/>
  <flow id="car_34241530#0_23241821#0_00089665" type="car" begin="0" end="3600" vehsPerHour="12.91" departLane="best" departPos="random" departSpeed="0" from="34241530#0" to="23241821#0"/>
  <flow id="motorcycle_34241530#0_198876042#0_00089665" type="motorcycle" begin="0" end="3600" vehsPerHour="78.81" departLane="best" departPos="random" departSpeed="0" from="34241530#0" to="198876042#0"/>
  <flow id="motorcycle_34241530#0_193253427#0_00089665" type="motorcycle" begin="0" end="3600" vehsPerHour="65.36" departLane="best" departPos="random" departSpeed="0" from="34241530#0" to="193253427#0"/>
  <flow id="motorcycle_34241530#0_198876043#2_00089665" type="motorcycle" begin="0" end="3600" vehsPerHour="58.53" departLane="best" departPos="random" departSpeed="0" from="34241530#0" to="198876043#2"/>
  <flow id="motorcycle_34241530#0_28231434_00089665" type="motorcycle" begin="0" end="3600" vehsPerHour="56.03" departLane="best" departPos="random" departSpeed="0" from="34241530#0" to="28231434"/>
  <flow id="motorcycle_34241530#0_23241821#0_00089665" type="motorcycle" begin="0" end="3600" vehsPerHour="44.87" departLane="best" departPos="random" departSpeed="0" from="34241530#0" to="23241821#0"/>
  <flow id="truck_34241530#0_198876042#0_00089665" type="truck" begin="0" end="3600" vehsPerHour="12.37" departLane="best" departPos="random" departSpeed="0" from="34241530#0" to="198876042#0"/>
</routes>
