<routes>
<vType id="car" vClass="passenger" accel="2.6" decel="4.5" sigma="0.5" length="5.0" maxSpeed="13.9"/>
<vType id="motorcycle" vClass="motorcycle" accel="3.0" decel="5.0" sigma="0.5" length="2.0" maxSpeed="14.0"/>
<vType id="truck" vClass="truck" accel="1.2" decel="3.5" sigma="0.5" length="12.0" maxSpeed="10.0"/>

  <flow id="car_222682222#1_193253427#0_000808b0" type="car" begin="0" end="3600" vehsPerHour="60.18" departLane="best" departPos="random" departSpeed="0" from="222682222#1" to="193253427#0"/>
  <flow id="car_222682222#1_198876043#0_000808b0" type="car" begin="0" end="3600" vehsPerHour="52.18" departLane="best" departPos="random" departSpeed="0" from="222682222#1" to="198876043#0"/>
  <flow id="car_222682222#1_28231434_000808b0" type="car" begin="0" end="3600" vehsPerHour="52.56" departLane="best" departPos="random" departSpeed="0" from="222682222#1" to="28231434"/>
  <flow id="car_222682222#1_23241821#0_000808b0" type="car" begin="0" end="3600" vehsPerHour="39.72" departLane="best" departPos="random" departSpeed="0" from="222682222#1" to="23241821#0"/>
  <flow id="car_222682222#1_198876042#0_000808b0" type="car" begin="0" end="3600" vehsPerHour="34.18" departLane="best" departPos="random" departSpeed="0" from="222682222#1" to="198876042#0"/>
  <flow id="motorcycle_222682222#1_193253427#0_000808b0" type="motorcycle" begin="0" end="3600" vehsPerHour="172.57" departLane="best" departPos="random" departSpeed="0" from="222682222#1" to="193253427#0"/>
  <flow id="motorcycle_222682222#1_198876043#0_000808b0" type="motorcycle" begin="0" end="3600" vehsPerHour="161.60" departLane="best" departPos="random" departSpeed="0" from="222682222#1" to="198876043#0"/>
  <flow id="motorcycle_222682222#1_28231434_000808b0" type="motorcycle" begin="0" end="3600" vehsPerHour="140.09" departLane="best" departPos="random" departSpeed="0" from="222682222#1" to="28231434"/>
  <flow id="motorcycle_222682222#1_23241821#0_000808b0" type="motorcycle" begin="0" end="3600" vehsPerHour="112.83" departLane="best" departPos="random" departSpeed="0" from="222682222#1" to="23241821#0"/>
  <flow id="motorcycle_222682222#1_198876042#0_000808b0" type="motorcycle" begin="0" end="3600" vehsPerHour="96.46" departLane="best" departPos="random" departSpeed="0" from="222682222#1" to="198876042#0"/>
  <flow id="car_193253433#2_198876043#0_000808b0" type="car" begin="0" end="3600" vehsPerHour="38.52" departLane="best" departPos="random" departSpeed="0" from="193253433#2" to="198876043#0"/>
  <flow id="car_193253433#2_28231434_000808b0" type="car" begin="0" end="3600" vehsPerHour="35.08" departLane="best" departPos="random" departSpeed="0" from="193253433#2" to="28231434"/>
  <flow id="car_193253433#2_23241821#0_000808b0" type="car" begin="0" end="3600" vehsPerHour="32.48" departLane="best" departPos="random" departSpeed="0" from="193253433#2" to="23241821#0"/>
  <flow id="car_193253433#2_198876042#0_000808b0" type="car" begin="0" end="3600" vehsPerHour="27.08" departLane="best" departPos="random" departSpeed="0" from="193253433#2" to="198876042#0"/>
  <flow id="car_193253433#2_193253427#0_000808b0" type="car" begin="0" end="3600" vehsPerHour="24.59" departLane="best" departPos="random" departSpeed="0" from="193253433#2" to="193253427#0"/>
  <flow id="motorcycle_193253433#2_198876043#0_000808b0" type="motorcycle" begin="0" end="3600" vehsPerHour="120.00" departLane="best" departPos="random" departSpeed="0" from="193253433#2" to="198876043#0"/>
  <flow id="motorcycle_193253433#2_28231434_000808b0" type="motorcycle" begin="0" end="3600" vehsPerHour="105.12" departLane="best" departPos="random" departSpeed="0" from="193253433#2" to="28231434"/>
  <flow id="motorcycle_193253433#2_23241821#0_000808b0" type="motorcycle" begin="0" end="3600" vehsPerHour="90.28" departLane="best" departPos="random" departSpeed="0" from="193253433#2" to="23241821#0"/>
  <flow id="motorcycle_193253433#2_198876042#0_000808b0" type="motorcycle" begin="0" end="3600" vehsPerHour="78.43" departLane="best" departPos="random" departSpeed="0" from="193253433#2" to="198876042#0"/>
  <flow id="motorcycle_193253433#2_193253427#0_000808b0" type="motorcycle" begin="0" end="3600" vehsPerHour="68.38" departLane="best" departPos="random" departSpeed="0" from="193253433#2" to="193253427#0"/>
  <flow id="car_198876045#1_28231434_000808b0" type="car" begin="0" end="3600" vehsPerHour="32.77" departLane="best" departPos="random" departSpeed="0" from="198876045#1" to="28231434"/>
  <flow id="car_198876045#1_23241821#0_000808b0" type="car" begin="0" end="3600" vehsPerHour="30.36" departLane="best" departPos="random" departSpeed="0" from="198876045#1" to="23241821#0"/>
  <flow id="car_198876045#1_198876042#0_000808b0" type="car" begin="0" end="3600" vehsPerHour="27.53" departLane="best" departPos="random" departSpeed="0" from="198876045#1" to="198876042#0"/>
  <flow id="car_198876045#1_193253427#0_000808b0" type="car" begin="0" end="3600" vehsPerHour="22.70" departLane="best" departPos="random" departSpeed="0" from="198876045#1" to="193253427#0"/>
  <flow id="car_198876045#1_198876043#2_000808b0" type="car" begin="0" end="3600" vehsPerHour="20.35" departLane="best" departPos="random" departSpeed="0" from="198876045#1" to="198876043#2"/>
  <flow id="motorcycle_198876045#1_28231434_000808b0" type="motorcycle" begin="0" end="3600" vehsPerHour="96.88" departLane="best" departPos="random" departSpeed="0" from="198876045#1" to="28231434"/>
  <flow id="motorcycle_198876045#1_23241821#0_000808b0" type="motorcycle" begin="0" end="3600" vehsPerHour="84.93" departLane="best" departPos="random" departSpeed="0" from="198876045#1" to="23241821#0"/>
  <flow id="motorcycle_198876045#1_198876042#0_000808b0" type="motorcycle" begin="0" end="3600" vehsPerHour="78.75" departLane="best" departPos="random" departSpeed="0" from="198876045#1" to="198876042#0"/>
  <flow id="motorcycle_198876045#1_193253427#0_000808b0" type="motorcycle" begin="0" end="3600" vehsPerHour="72.56" departLane="best" departPos="random" departSpeed="0" from="198876045#1" to="193253427#0"/>
  <flow id="motorcycle_198876045#1_198876043#2_000808b0" type="motorcycle" begin="0" end="3600" vehsPerHour="67.76" departLane="best" departPos="random" departSpeed="0" from="198876045#1" to="198876043#2"/>
  <flow id="car_-28231434_23241821#0_000808b0" type="car" begin="0" end="3600" vehsPerHour="22.70" departLane="best" departPos="random" departSpeed="0" from="-28231434" to="23241821#0"/>
  <flow id="car_-28231434_198876042#0_000808b0" type="car" begin="0" end="3600" vehsPerHour="20.10" departLane="best" departPos="random" departSpeed="0" from="-28231434" to="198876042#0"/>
  <flow id="car_-28231434_193253427#0_000808b0" type="car" begin="0" end="3600" vehsPerHour="17.20" departLane="best" departPos="random" departSpeed="0" from="-28231434" to="193253427#0"/>
  <flow id="car_-28231434_198876043#2_000808b0" type="car" begin="0" end="3600" vehsPerHour="16.26" departLane="best" departPos="random" departSpeed="0" from="-28231434" to="198876043#2"/>
  <flow id="car_-28231434_28231434_000808b0" type="car" begin="0" end="3600" vehsPerHour="13.75" departLane="best" departPos="random" departSpeed="0" from="-28231434" to="28231434"/>
  <flow id="motorcycle_-28231434_23241821#0_000808b0" type="motorcycle" begin="0" end="3600" vehsPerHour="67.98" departLane="best" departPos="random" departSpeed="0" from="-28231434" to="23241821#0"/>
  <flow id="motorcycle_-28231434_198876042#0_000808b0" type="motorcycle" begin="0" end="3600" vehsPerHour="59.19" departLane="best" departPos="random" departSpeed="0" from="-28231434" to="198876042#0"/>
  <flow id="motorcycle_-28231434_193253427#0_000808b0" type="motorcycle" begin="0" end="3600" vehsPerHour="52.96" departLane="best" departPos="random" departSpeed="0" from="-28231434" to="193253427#0"/>
  <flow id="motorcycle_-28231434_198876043#2_000808b0" type="motorcycle" begin="0" end="3600" vehsPerHour="46.27" departLane="best" departPos="random" departSpeed="0" from="-28231434" to="198876043#2"/>
  <flow id="motorcycle_-28231434_28231434_000808b0" type="motorcycle" begin="0" end="3600" vehsPerHour="39.81" departLane="best" departPos="random" departSpeed="0" from="-28231434" to="28231434"/>
  <flow id="car_-55029244#0_198876042#0_000808b0" type="car" begin="0" end="3600" vehsPerHour="28.08" departLane="best" departPos="random" departSpeed="0" from="-55029244#0" to="198876042#0"/>
  <flow id="car_-55029244#0_193253427#0_000808b0" type="car" begin="0" end="3600" vehsPerHour="23.29" departLane="best" departPos="random" departSpeed="0" from="-55029244#0" to="193253427#0"/>
  <flow id="car_-55029244#0_198876043#2_000808b0" type="car" begin="0" end="3600" vehsPerHour="19.22" departLane="best" departPos="random" departSpeed="0" from="-55029244#0" to="198876043#2"/>
  <flow id="car_-55029244#0_28231434_000808b0" type="car" begin="0" end="3600" vehsPerHour="17.62" departLane="best" departPos="random" departSpeed="0" from="-55029244#0" to="28231434"/>
  <flow id="car_-55029244#0_23241821#0_000808b0" type="car" begin="0" end="3600" vehsPerHour="13.85" departLane="best" departPos="random" departSpeed="0" from="-55029244#0" to="23241821#0"/>
  <flow id="motorcycle_-55029244#0_198876042#0_000808b0" type="motorcycle" begin="0" end="3600" vehsPerHour="78.22" departLane="best" departPos="random" departSpeed="0" from="-55029244#0" to="198876042#0"/>
  <flow id="motorcycle_-55029244#0_193253427#0_000808b0" type="motorcycle" begin="0" end="3600" vehsPerHour="67.69" departLane="best" departPos="random" departSpeed="0" from="-55029244#0" to="193253427#0"/>
  <flow id="motorcycle_-55029244#0_198876043#2_000808b0" type="motorcycle" begin="0" end="3600" vehsPerHour="57.68" departLane="best" departPos="random" departSpeed="0" from="-55029244#0" to="198876043#2"/>
  <flow id="motorcycle_-55029244#0_28231434_000808b0" type="motorcycle" begin="0" end="3600" vehsPerHour="55.35" departLane="best" departPos="random" departSpeed="0" from="-55029244#0" to="28231434"/>
  <flow id="motorcycle_-55029244#0_23241821#0_000808b0" type="motorcycle" begin="0" end="3600" vehsPerHour="47.15" departLane="best" departPos="random" departSpeed="0" from="-55029244#0" to="23241821#0"/>
  <flow id="car_34241530#0_198876042#0_000808b0" type="car" begin="0" end="3600" vehsPerHour="25.64" departLane="best" departPos="random" departSpeed="0" from="34241530#0" to="198876042#0"/>
  <flow id="car_34241530#0_193253427#0_000808b0" type="car" begin="0" end="3600" vehsPerHour="22.77" departLane="best" departPos="random" departSpeed="0" from="34241530#0" to="193253427#0"/>
  <flow id="car_34241530#0_198876043#2_000808b0" type="car" begin="0" end="3600" vehsPerHour="20.26" departLane="best" departPos="random" departSpeed="0" from="34241530#0" to="198876043#2"/>
  <flow id="car_34241530#0_28231434_000808b0" type="car" begin="0" end="3600" vehsPerHour="17.54" departLane="best" departPos="random" departSpeed="0" from="34241530#0" to="28231434"/>
  <flow id="car_34241530#0_23241821#0_000808b0" type="car" begin="0" end="3600" vehsPerHour="13.74" departLane="best" departPos="random" departSpeed="0" from="34241530#0" to="23241821#0"/>
  <flow id="motorcycle_34241530#0_198876042#0_000808b0" type="motorcycle" begin="0" end="3600" vehsPerHour="78.73" departLane="best" departPos="random" departSpeed="0" from="34241530#0" to="198876042#0"/>
  <flow id="motorcycle_34241530#0_193253427#0_000808b0" type="motorcycle" begin="0" end="3600" vehsPerHour="66.94" departLane="best" departPos="random" departSpeed="0" from="34241530#0" to="193253427#0"/>
  <flow id="motorcycle_34241530#0_198876043#2_000808b0" type="motorcycle" begin="0" end="3600" vehsPerHour="60.88" departLane="best" departPos="random" departSpeed="0" from="34241530#0" to="198876043#2"/>
  <flow id="motorcycle_34241530#0_28231434_000808b0" type="motorcycle" begin="0" end="3600" vehsPerHour="52.94" departLane="best" departPos="random" departSpeed="0" from="34241530#0" to="28231434"/>
  <flow id="motorcycle_34241530#0_23241821#0_000808b0" type="motorcycle" begin="0" end="3600" vehsPerHour="47.33" departLane="best" departPos="random" departSpeed="0" from="34241530#0" to="23241821#0"/>
  <flow id="truck_34241530#0_198876042#0_000808b0" type="truck" begin="0" end="3600" vehsPerHour="11.90" departLane="best" departPos="random" departSpeed="0" from="34241530#0" to="198876042#0"/>
</routes>
