<routes>
<vType id="car" vClass="passenger" accel="2.6" decel="4.5" sigma="0.5" length="5.0" maxSpeed="13.9"/>
<vType id="motorcycle" vClass="motorcycle" accel="3.0" decel="5.0" sigma="0.5" length="2.0" maxSpeed="14.0"/>
<vType id="truck" vClass="truck" accel="1.2" decel="3.5" sigma="0.5" length="12.0" maxSpeed="10.0"/>

  <flow id="car_222682222#1_193253427#0_0004d2d4" type="car" begin="0" end="3600" vehsPerHour="59.52" departLane="best" departPos="random" departSpeed="0" from="222682222#1" to="193253427#0"/>
  <flow id="car_222682222#1_198876043#0_0004d2d4" type="car" begin="0" end="3600" vehsPerHour="50.49" departLane="best" departPos="random" departSpeed="0" from="222682222#1" to="198876043#0"/>
  <flow id="car_222682222#1_28231434_0004d2d4" type="car" begin="0" end="3600" vehsPerHour="49.26" departLane="best" departPos="random" departSpeed="0" from="222682222#1" to="28231434"/>
  <flow id="car_222682222#1_23241821#0_0004d2d4" type="car" begin="0" end="3600" vehsPerHour="41.75" departLane="best" departPos="random" departSpeed="0" from="222682222#1" to="23241821#0"/>
  <flow id="car_222682222#1_198876042#0_0004d2d4" type="car" begin="0" end="3600" vehsPerHour="32.87" departLane="best" departPos="random" departSpeed="0" from="222682222#1" to="198876042#0"/>
  <flow id="motorcycle_222682222#1_193253427#0_0004d2d4" type="motorcycle" begin="0" end="3600" vehsPerHour="174.78" departLane="best" departPos="random" departSpeed="0" from="222682222#1" to="193253427#0"/>
  <flow id="motorcycle_222682222#1_198876043#0_0004d2d4" type="motorcycle" begin="0" end="3600" vehsPerHour="150.54" departLane="best" departPos="random" departSpeed="0" from="222682222#1" to="198876043#0"/>
  <flow id="motorcycle_222682222#1_28231434_0004d2d4" type="motorcycle" begin="0" end="3600" vehsPerHour="136.12" departLane="best" departPos="random" departSpeed="0" from="222682222#1" to="28231434"/>
  <flow id="motorcycle_222682222#1_23241821#0_0004d2d4" type="motorcycle" begin="0" end="3600" vehsPerHour="110.36" departLane="best" departPos="random" departSpeed="0" from="222682222#1" to="23241821#0"/>
  <flow id="motorcycle_222682222#1_198876042#0_0004d2d4" type="motorcycle" begin="0" end="3600" vehsPerHour="99.25" departLane="best" departPos="random" departSpeed="0" from="222682222#1" to="198876042#0"/>
  <flow id="car_193253433#2_198876043#0_0004d2d4" type="car" begin="0" end="3600" vehsPerHour="40.26" departLane="best" departPos="random" departSpeed="0" from="193253433#2" to="198876043#0"/>
  <flow id="car_193253433#2_28231434_0004d2d4" type="car" begin="0" end="3600" vehsPerHour="33.92" departLane="best" departPos="random" departSpeed="0" from="193253433#2" to="28231434"/>
  <flow id="car_193253433#2_23241821#0_0004d2d4" type="car" begin="0" end="3600" vehsPerHour="33.98" departLane="best" departPos="random" departSpeed="0" from="193253433#2" to="23241821#0"/>
  <flow id="car_193253433#2_198876042#0_0004d2d4" type="car" begin="0" end="3600" vehsPerHour="27.62" departLane="best" departPos="random" departSpeed="0" from="193253433#2" to="198876042#0"/>
  <flow id="car_193253433#2_193253427#0_0004d2d4" type="car" begin="0" end="3600" vehsPerHour="23.45" departLane="best" departPos="random" departSpeed="0" from="193253433#2" to="193253427#0"/>
  <flow id="motorcycle_193253433#2_198876043#0_0004d2d4" type="motorcycle" begin="0" end="3600" vehsPerHour="113.42" departLane="best" departPos="random" departSpeed="0" from="193253433#2" to="198876043#0"/>
  <flow id="motorcycle_193253433#2_28231434_0004d2d4" type="motorcycle" begin="0" end="3600" vehsPerHour="101.26" departLane="best" departPos="random" departSpeed="0" from="193253433#2" to="28231434"/>
  <flow id="motorcycle_193253433#2_23241821#0_0004d2d4" type="motorcycle" begin="0" end="3600" vehsPerHour="91.89" departLane="best" departPos="random" departSpeed="0" from="193253433#2" to="23241821#0"/>
  <flow id="motorcycle_193253433#2_198876042#0_0004d2d4" type="motorcycle" begin="0" end="3600" vehsPerHour="79.39" departLane="best" departPos="random" departSpeed="0" from="193253433#2" to="198876042#0"/>
  <flow id="motorcycle_193253433#2_193253427#0_0004d2d4" type="motorcycle" begin="0" end="3600" vehsPerHour="68.94" departLane="best" departPos="random" departSpeed="0" from="193253433#2" to="193253427#0"/>
  <flow id="car_198876045#1_28231434_0004d2d4" type="car" begin="0" end="3600" vehsPerHour="34.06" departLane="best" departPos="random" departSpeed="0" from="198876045#1" to="28231434"/>
  <flow id="car_198876045#1_23241821#0_0004d2d4" type="car" begin="0" end="3600" vehsPerHour="31.11" departLane="best" departPos="random" departSpeed="0" from="198876045#1" to="23241821#0"/>
  <flow id="car_198876045#1_198876042#0_0004d2d4" type="car" begin="0" end="3600" vehsPerHour="26.03" departLane="best" departPos="random" departSpeed="0" from="198876045#1" to="198876042#0"/>
  <flow id="car_198876045#1_193253427#0_0004d2d4" type="car" begin="0" end="3600" vehsPerHour="23.21" departLane="best" departPos="random" departSpeed="0" from="198876045#1" to="193253427#0"/>
  <flow id="car_198876045#1_198876043#2_0004d2d4" type="car" begin="0" end="3600" vehsPerHour="20.54" departLane="best" departPos="random" departSpeed="0" from="198876045#1" to="198876043#2"/>
  <flow id="motorcycle_198876045#1_28231434_0004d2d4" type="motorcycle" begin="0" end="3600" vehsPerHour="96.58" departLane="best" departPos="random" departSpeed="0" from="198876045#1" to="28231434"/>
  <flow id="motorcycle_198876045#1_23241821#0_0004d2d4" type="motorcycle" begin="0" end="3600" vehsPerHour="89.88" departLane="best" departPos="random" departSpeed="0" from="198876045#1" to="23241821#0"/>
  <flow id="motorcycle_198876045#1_198876042#0_0004d2d4" type="motorcycle" begin="0" end="3600" vehsPerHour="82.61" departLane="best" departPos="random" departSpeed="0" from="198876045#1" to="198876042#0"/>
  <flow id="motorcycle_198876045#1_193253427#0_0004d2d4" type="motorcycle" begin="0" end="3600" vehsPerHour="71.43" departLane="best" departPos="random" departSpeed="0" from="198876045#1" to="193253427#0"/>
  <flow id="motorcycle_198876045#1_198876043#2_0004d2d4" type="motorcycle" begin="0" end="3600" vehsPerHour="68.24" departLane="best" departPos="random" departSpeed="0" from="198876045#1" to="198876043#2"/>
  <flow id="car_-28231434_23241821#0_0004d2d4" type="car" begin="0" end="3600" vehsPerHour="23.01" departLane="best" departPos="random" departSpeed="0" from="-28231434" to="23241821#0"/>
  <flow id="car_-28231434_198876042#0_0004d2d4" type="car" begin="0" end="3600" vehsPerHour="19.93" departLane="best" departPos="random" departSpeed="0" from="-28231434" to="198876042#0"/>
  <flow id="car_-28231434_193253427#0_0004d2d4" type="car" begin="0" end="3600" vehsPerHour="16.19" departLane="best" departPos="random" departSpeed="0" from="-28231434" to="193253427#0"/>
  <flow id="car_-28231434_198876043#2_0004d2d4" type="car" begin="0" end="3600" vehsPerHour="16.06" departLane="best" departPos="random" departSpeed="0" from="-28231434" to="198876043#2"/>
  <flow id="car_-28231434_28231434_0004d2d4" type="car" begin="0" end="3600" vehsPerHour="13.55" departLane="best" departPos="random" departSpeed="0" from="-28231434" to="28231434"/>
  <flow id="motorcycle_-28231434_23241821#0_0004d2d4" type="motorcycle" begin="0" end="3600" vehsPerHour="64.25" departLane="best" departPos="random" departSpeed="0" from="-28231434" to="23241821#0"/>
  <flow id="motorcycle_-28231434_198876042#0_0004d2d4" type="motorcycle" begin="0" end="3600" vehsPerHour="61.75" departLane="best" departPos="random" departSpeed="0" from="-28231434" to="198876042#0"/>
  <flow id="motorcycle_-28231434_193253427#0_0004d2d4" type="motorcycle" begin="0" end="3600" vehsPerHour="55.25" departLane="best" departPos="random" departSpeed="0" from="-28231434" to="193253427#0"/>
  <flow id="motorcycle_-28231434_198876043#2_0004d2d4" type="motorcycle" begin="0" end="3600" vehsPerHour="49.08" departLane="best" departPos="random" departSpeed="0" from="-28231434" to="198876043#2"/>
  <flow id="motorcycle_-28231434_28231434_0004d2d4" type="motorcycle" begin="0" end="3600" vehsPerHour="39.16" departLane="best" departPos="random" departSpeed="0" from="-28231434" to="28231434"/>
  <flow id="car_-55029244#0_198876042#0_0004d2d4" type="car" begin="0" end="3600" vehsPerHour="27.63" departLane="best" departPos="random" departSpeed="0" from="-55029244#0" to="198876042#0"/>
  <flow id="car_-55029244#0_193253427#0_0004d2d4" type="car" begin="0" end="3600" vehsPerHour="24.40" departLane="best" departPos="random" departSpeed="0" from="-55029244#0" to="193253427#0"/>
  <flow id="car_-55029244#0_198876043#2_0004d2d4" type="car" begin="0" end="3600" vehsPerHour="20.07" departLane="best" departPos="random" departSpeed="0" from="-55029244#0" to="198876043#2"/>
  <flow id="car_-55029244#0_28231434_0004d2d4" type="car" begin="0" end="3600" vehsPerHour="16.78" departLane="best" departPos="random" departSpeed="0" from="-55029244#0" to="28231434"/>
  <flow id="car_-55029244#0_23241821#0_0004d2d4" type="car" begin="0" end="3600" vehsPerHour="14.06" departLane="best" departPos="random" departSpeed="0" from="-55029244#0" to="23241821#0"/>
  <flow id="motorcycle_-55029244#0_198876042#0_0004d2d4" type="motorcycle" begin="0" end="3600" vehsPerHour="81.26" departLane="best" departPos="random" departSpeed="0" from="-55029244#0" to="198876042#0"/>
  <flow id="motorcycle_-55029244#0_193253427#0_0004d2d4" type="motorcycle" begin="0" end="3600" vehsPerHour="66.81" departLane="best" departPos="random" departSpeed="0" from="-55029244#0" to="193253427#0"/>
  <flow id="motorcycle_-55029244#0_198876043#2_0004d2d4" type="motorcycle" begin="0" end="3600" vehsPerHour="61.55" departLane="best" departPos="random" departSpeed="0" from="-55029244#0" to="198876043#2"/>
  <flow id="motorcycle_-55029244#0_28231434_0004d2d4" type="motorcycle" begin="0" end="3600" vehsPerHour="52.33" departLane="best" departPos="random" departSpeed="0" from="-55029244#0" to="28231434"/>
  <flow id="motorcycle_-55029244#0_23241821#0_0004d2d4" type="motorcycle" begin="0" end="3600" vehsPerHour="47.09" departLane="best" departPos="random" departSpeed="0" from="-55029244#0" to="23241821#0"/>
  <flow id="car_34241530#0_198876042#0_0004d2d4" type="car" begin="0" end="3600" vehsPerHour="27.73" departLane="best" departPos="random" departSpeed="0" from="34241530#0" to="198876042#0"/>
  <flow id="car_34241530#0_193253427#0_0004d2d4" type="car" begin="0" end="3600" vehsPerHour="24.18" departLane="best" departPos="random" departSpeed="0" from="34241530#0" to="193253427#0"/>
  <flow id="car_34241530#0_198876043#2_0004d2d4" type="car" begin="0" end="3600" vehsPerHour="21.02" departLane="best" departPos="random" departSpeed="0" from="34241530#0" to="198876043#2"/>
  <flow id="car_34241530#0_28231434_0004d2d4" type="car" begin="0" end="3600" vehsPerHour="16.71" departLane="best" departPos="random" departSpeed="0" from="34241530#0" to="28231434"/>
  <flow id="car_34241530#0_23241821#0_0004d2d4" type="car" begin="0" end="3600" vehsPerHour="13.54" departLane="best" departPos="random" departSpeed="0" from="34241530#0" to="23241821#0"/>
  <flow id="motorcycle_34241530#0_198876042#0_0004d2d4" type="motorcycle" begin="0" end="3600" vehsPerHour="77.06" departLane="best" departPos="random" departSpeed="0" from="34241530#0" to="198876042#0"/>
  <flow id="motorcycle_34241530#0_193253427#0_0004d2d4" type="motorcycle" begin="0" end="3600" vehsPerHour="69.29" departLane="best" departPos="random" departSpeed="0" from="34241530#0" to="193253427#0"/>
  <flow id="motorcycle_34241530#0_198876043#2_0004d2d4" type="motorcycle" begin="0" end="3600" vehsPerHour="59.08" departLane="best" departPos="random" departSpeed="0" from="34241530#0" to="198876043#2"/>
  <flow id="motorcycle_34241530#0_28231434_0004d2d4" type="motorcycle" begin="0" end="3600" vehsPerHour="53.55" departLane="best" departPos="random" departSpeed="0" from="34241530#0" to="28231434"/>
  <flow id="motorcycle_34241530#0_23241821#0_0004d2d4" type="motorcycle" begin="0" end="3600" vehsPerHour="48.51" departLane="best" departPos="random" departSpeed="0" from="34241530#0" to="23241821#0"/>
  <flow id="truck_34241530#0_198876042#0_0004d2d4" type="truck" begin="0" end="3600" vehsPerHour="11.76" departLane="best" departPos="random" departSpeed="0" from="34241530#0" to="198876042#0"/>
</routes>
