<routes>
<vType id="car" vClass="passenger" accel="2.6" decel="4.5" sigma="0.5" length="5.0" maxSpeed="13.9"/>
<vType id="motorcycle" vClass="motorcycle" accel="3.0" decel="5.0" sigma="0.5" length="2.0" maxSpeed="14.0"/>
<vType id="truck" vClass="truck" accel="1.2" decel="3.5" sigma="0.5" length="12.0" maxSpeed="10.0"/>

  <flow id="car_222682222#1_193253427#0_00043f42" type="car" begin="0" end="3600" vehsPerHour="63.31" departLane="best" departPos="random" departSpeed="0" from="222682222#1" to="193253427#0"/>
  <flow id="car_222682222#1_198876043#0_00043f42" type="car" begin="0" end="3600" vehsPerHour="49.90" departLane="best" departPos="random" departSpeed="0" from="222682222#1" to="198876043#0"/>
  <flow id="car_222682222#1_28231434_00043f42" type="car" begin="0" end="3600" vehsPerHour="51.00" departLane="best" departPos="random" departSpeed="0" from="222682222#1" to="28231434"/>
  <flow id="car_222682222#1_23241821#0_00043f42" type="car" begin="0" end="3600" vehsPerHour="42.12" departLane="best" departPos="random" departSpeed="0" from="222682222#1" to="23241821#0"/>
  <flow id="car_222682222#1_198876042#0_00043f42" type="car" begin="0" end="3600" vehsPerHour="32.83" departLane="best" departPos="random" departSpeed="0" from="222682222#1" to="198876042#0"/>
  <flow id="motorcycle_222682222#1_193253427#0_00043f42" type="motorcycle" begin="0" end="3600" vehsPerHour="180.32" departLane="best" departPos="random" departSpeed="0" from="222682222#1" to="193253427#0"/>
  <flow id="motorcycle_222682222#1_198876043#0_00043f42" type="motorcycle" begin="0" end="3600" vehsPerHour="158.93" departLane="best" departPos="random" departSpeed="0" from="222682222#1" to="198876043#0"/>
  <flow id="motorcycle_222682222#1_28231434_00043f42" type="motorcycle" begin="0" end="3600" vehsPerHour="146.12" departLane="best" departPos="random" departSpeed="0" from="222682222#1" to="28231434"/>
  <flow id="motorcycle_222682222#1_23241821#0_00043f42" type="motorcycle" begin="0" end="3600" vehsPerHour="117.99" departLane="best" departPos="random" departSpeed="0" from="222682222#1" to="23241821#0"/>
  <flow id="motorcycle_222682222#1_198876042#0_00043f42" type="motorcycle" begin="0" end="3600" vehsPerHour="98.20" departLane="best" departPos="random" departSpeed="0" from="222682222#1" to="198876042#0"/>
  <flow id="car_193253433#2_198876043#0_00043f42" type="car" begin="0" end="3600" vehsPerHour="40.09" departLane="best" departPos="random" departSpeed="0" from="193253433#2" to="198876043#0"/>
  <flow id="car_193253433#2_28231434_00043f42" type="car" begin="0" end="3600" vehsPerHour="33.25" departLane="best" departPos="random" departSpeed="0" from="193253433#2" to="28231434"/>
  <flow id="car_193253433#2_23241821#0_00043f42" type="car" begin="0" end="3600" vehsPerHour="32.67" departLane="best" departPos="random" departSpeed="0" from="193253433#2" to="23241821#0"/>
  <flow id="car_193253433#2_198876042#0_00043f42" type="car" begin="0" end="3600" vehsPerHour="26.21" departLane="best" departPos="random" departSpeed="0" from="193253433#2" to="198876042#0"/>
  <flow id="car_193253433#2_193253427#0_00043f42" type="car" begin="0" end="3600" vehsPerHour="23.06" departLane="best" departPos="random" departSpeed="0" from="193253433#2" to="193253427#0"/>
  <flow id="motorcycle_193253433#2_198876043#0_00043f42" type="motorcycle" begin="0" end="3600" vehsPerHour="115.84" departLane="best" departPos="random" departSpeed="0" from="193253433#2" to="198876043#0"/>
  <flow id="motorcycle_193253433#2_28231434_00043f42" type="motorcycle" begin="0" end="3600" vehsPerHour="96.27" departLane="best" departPos="random" departSpeed="0" from="193253433#2" to="28231434"/>
  <flow id="motorcycle_193253433#2_23241821#0_00043f42" type="motorcycle" begin="0" end="3600" vehsPerHour="92.89" departLane="best" departPos="random" departSpeed="0" from="193253433#2" to="23241821#0"/>
  <flow id="motorcycle_193253433#2_198876042#0_00043f42" type="motorcycle" begin="0" end="3600" vehsPerHour="80.09" departLane="best" departPos="random" departSpeed="0" from="193253433#2" to="198876042#0"/>
  <flow id="motorcycle_193253433#2_193253427#0_00043f42" type="motorcycle" begin="0" end="3600" vehsPerHour="64.11" departLane="best" departPos="random" departSpeed="0" from="193253433#2" to="193253427#0"/>
  <flow id="car_198876045#1_28231434_00043f42" type="car" begin="0" end="3600" vehsPerHour="33.22" departLane="best" departPos="random" departSpeed="0" from="198876045#1" to="28231434"/>
  <flow id="car_198876045#1_23241821#0_00043f42" type="car" begin="0" end="3600" vehsPerHour="31.12" departLane="best" departPos="random" departSpeed="0" from="198876045#1" to="23241821#0"/>
  <flow id="car_198876045#1_198876042#0_00043f42" type="car" begin="0" end="3600" vehsPerHour="27.32" departLane="best" departPos="random" departSpeed="0" from="198876045#1" to="198876042#0"/>
  <flow id="car_198876045#1_193253427#0_00043f42" type="car" begin="0" end="3600" vehsPerHour="23.51" departLane="best" departPos="random" departSpeed="0" from="198876045#1" to="193253427#0"/>
  <flow id="car_198876045#1_198876043#2_00043f42" type="car" begin="0" end="3600" vehsPerHour="20.42" departLane="best" departPos="random" departSpeed="0" from="198876045#1" to="198876043#2"/>
  <flow id="motorcycle_198876045#1_28231434_00043f42" type="motorcycle" begin="0" end="3600" vehsPerHour="98.02" departLane="best" departPos="random" departSpeed="0" from="198876045#1" to="28231434"/>
  <flow id="motorcycle_198876045#1_23241821#0_00043f42" type="motorcycle" begin="0" end="3600" vehsPerHour="90.38" departLane="best" departPos="random" departSpeed="0" from="198876045#1" to="23241821#0"/>
  <flow id="motorcycle_198876045#1_198876042#0_00043f42" type="motorcycle" begin="0" end="3600" vehsPerHour="83.29" departLane="best" departPos="random" departSpeed="0" from="198876045#1" to="198876042#0"/>
  <flow id="motorcycle_198876045#1_193253427#0_00043f42" type="motorcycle" begin="0" end="3600" vehsPerHour="77.35" departLane="best" departPos="random" departSpeed="0" from="198876045#1" to="193253427#0"/>
  <flow id="motorcycle_198876045#1_198876043#2_00043f42" type="motorcycle" begin="0" end="3600" vehsPerHour="66.32" departLane="best" departPos="random" departSpeed="0" from="198876045#1" to="198876043#2"/>
  <flow id="car_-28231434_23241821#0_00043f42" type="car" begin="0" end="3600" vehsPerHour="24.46" departLane="best" departPos="random" departSpeed="0" from="-28231434" to="23241821#0"/>
  <flow id="car_-28231434_198876042#0_00043f42" type="car" begin="0" end="3600" vehsPerHour="20.73" departLane="best" departPos="random" departSpeed="0" from="-28231434" to="198876042#0"/>
  <flow id="car_-28231434_193253427#0_00043f42" type="car" begin="0" end="3600" vehsPerHour="16.23" departLane="best" departPos="random" departSpeed="0" from="-28231434" to="193253427#0"/>
  <flow id="car_-28231434_198876043#2_00043f42" type="car" begin="0" end="3600" vehsPerHour="16.29" departLane="best" departPos="random" departSpeed="0" from="-28231434" to="198876043#2"/>
  <flow id="car_-28231434_28231434_00043f42" type="car" begin="0" end="3600" vehsPerHour="13.61" departLane="best" departPos="random" departSpeed="0" from="-28231434" to="28231434"/>
  <flow id="motorcycle_-28231434_23241821#0_00043f42" type="motorcycle" begin="0" end="3600" vehsPerHour="64.61" departLane="best" departPos="random" departSpeed="0" from="-28231434" to="23241821#0"/>
  <flow id="motorcycle_-28231434_198876042#0_00043f42" type="motorcycle" begin="0" end="3600" vehsPerHour="58.92" departLane="best" departPos="random" departSpeed="0" from="-28231434" to="198876042#0"/>
  <flow id="motorcycle_-28231434_193253427#0_00043f42" type="motorcycle" begin="0" end="3600" vehsPerHour="54.69" departLane="best" departPos="random" departSpeed="0" from="-28231434" to="193253427#0"/>
  <flow id="motorcycle_-28231434_198876043#2_00043f42" type="motorcycle" begin="0" end="3600" vehsPerHour="49.37" departLane="best" departPos="random" departSpeed="0" from="-28231434" to="198876043#2"/>
  <flow id="motorcycle_-28231434_28231434_00043f42" type="motorcycle" begin="0" end="3600" vehsPerHour="39.20" departLane="best" departPos="random" departSpeed="0" from="-28231434" to="28231434"/>
  <flow id="car_-55029244#0_198876042#0_00043f42" type="car" begin="0" end="3600" vehsPerHour="28.26" departLane="best" departPos="random" departSpeed="0" from="-55029244#0" to="198876042#0"/>
  <flow id="car_-55029244#0_193253427#0_00043f42" type="car" begin="0" end="3600" vehsPerHour="23.20" departLane="best" departPos="random" departSpeed="0" from="-55029244#0" to="193253427#0"/>
  <flow id="car_-55029244#0_198876043#2_00043f42" type="car" begin="0" end="3600" vehsPerHour="19.81" departLane="best" departPos="random" departSpeed="0" from="-55029244#0" to="198876043#2"/>
  <flow id="car_-55029244#0_28231434_00043f42" type="car" begin="0" end="3600" vehsPerHour="17.65" departLane="best" departPos="random" departSpeed="0" from="-55029244#0" to="28231434"/>
  <flow id="car_-55029244#0_23241821#0_00043f42" type="car" begin="0" end="3600" vehsPerHour="12.81" departLane="best" departPos="random" departSpeed="0" from="-55029244#0" to="23241821#0"/>
  <flow id="motorcycle_-55029244#0_198876042#0_00043f42" type="motorcycle" begin="0" end="3600" vehsPerHour="82.91" departLane="best" departPos="random" departSpeed="0" from="-55029244#0" to="198876042#0"/>
  <flow id="motorcycle_-55029244#0_193253427#0_00043f42" type="motorcycle" begin="0" end="3600" vehsPerHour="65.60" departLane="best" departPos="random" departSpeed="0" from="-55029244#0" to="193253427#0"/>
  <flow id="motorcycle_-55029244#0_198876043#2_00043f42" type="motorcycle" begin="0" end="3600" vehsPerHour="60.85" departLane="best" departPos="random" departSpeed="0" from="-55029244#0" to="198876043#2"/>
  <flow id="motorcycle_-55029244#0_28231434_00043f42" type="motorcycle" begin="0" end="3600" vehsPerHour="51.64" departLane="best" departPos="random" departSpeed="0" from="-55029244#0" to="28231434"/>
  <flow id="motorcycle_-55029244#0_23241821#0_00043f42" type="motorcycle" begin="0" end="3600" vehsPerHour="49.17" departLane="best" departPos="random" departSpeed="0" from="-55029244#0" to="23241821#0"/>
  <flow id="car_34241530#0_198876042#0_00043f42" type="car" begin="0" end="3600" vehsPerHour="25.92" departLane="best" departPos="random" departSpeed="0" from="34241530#0" to="198876042#0"/>
  <flow id="car_34241530#0_193253427#0_00043f42" type="car" begin="0" end="3600" vehsPerHour="24.41" departLane="best" departPos="random" departSpeed="0" from="34241530#0" to="193253427#0"/>
  <flow id="car_34241530#0_198876043#2_00043f42" type="car" begin="0" end="3600" vehsPerHour="20.99" departLane="best" departPos="random" departSpeed="0" from="34241530#0" to="198876043#2"/>
  <flow id="car_34241530#0_28231434_00043f42" type="car" begin="0" end="3600" vehsPerHour="17.36" departLane="best" departPos="random" departSpeed="0" from="34241530#0" to="28231434"/>
  <flow id="car_34241530#0_23241821#0_00043f42" type="car" begin="0" end="3600" vehsPerHour="12.92" departLane="best" departPos="random" departSpeed="0" from="34241530#0" to="23241821#0"/>
  <flow id="motorcycle_34241530#0_198876042#0_00043f42" type="motorcycle" begin="0" end="3600" vehsPerHour="78.20" departLane="best" departPos="random" departSpeed="0" from="34241530#0" to="198876042#0"/>
  <flow id="motorcycle_34241530#0_193253427#0_00043f42" type="motorcycle" begin="0" end="3600" vehsPerHour="64.22" departLane="best" departPos="random" departSpeed="0" from="34241530#0" to="193253427#0"/>
  <flow id="motorcycle_34241530#0_198876043#2_00043f42" type="motorcycle" begin="0" end="3600" vehsPerHour="61.91" departLane="best" departPos="random" departSpeed="0" from="34241530#0" to="198876043#2"/>
  <flow id="motorcycle_34241530#0_28231434_00043f42" type="motorcycle" begin="0" end="3600" vehsPerHour="54.69" departLane="best" departPos="random" departSpeed="0" from="34241530#0" to="28231434"/>
  <flow id="motorcycle_34241530#0_23241821#0_00043f42" type="motorcycle" begin="0" end="3600" vehsPerHour="47.59" departLane="best" departPos="random" departSpeed="0" from="34241530#0" to="23241821#0"/>
  <flow id="truck_34241530#0_198876042#0_00043f42" type="truck" begin="0" end="3600" vehsPerHour="11.90" departLane="best" departPos="random" departSpeed="0" from="34241530#0" to="198876042#0"/>
</routes>
