<routes>
<vType id="car" vClass="passenger" accel="2.6" decel="4.5" sigma="0.5" length="5.0" maxSpeed="13.9"/>
<vType id="motorcycle" vClass="motorcycle" accel="3.0" decel="5.0" sigma="0.5" length="2.0" maxSpeed="14.0"/>
<vType id="truck" vClass="truck" accel="1.2" decel="3.5" sigma="0.5" length="12.0" maxSpeed="10.0"/>

  <flow id="car_222682222#1_193253427#0_000c80ba" type="car" begin="0" end="3600" vehsPerHour="61.80" departLane="best" departPos="random" departSpeed="0" from="222682222#1" to="193253427#0"/>
  <flow id="car_222682222#1_198876043#0_000c80ba" type="car" begin="0" end="3600" vehsPerHour="51.35" departLane="best" departPos="random" departSpeed="0" from="222682222#1" to="198876043#0"/>
  <flow id="car_222682222#1_28231434_000c80ba" type="car" begin="0" end="3600" vehsPerHour="50.99" departLane="best" departPos="random" departSpeed="0" from="222682222#1" to="28231434"/>
  <flow id="car_222682222#1_23241821#0_000c80ba" type="car" begin="0" end="3600" vehsPerHour="39.58" departLane="best" departPos="random" departSpeed="0" from="222682222#1" to="23241821#0"/>
  <flow id="car_222682222#1_198876042#0_000c80ba" type="car" begin="0" end="3600" vehsPerHour="33.48" departLane="best" departPos="random" departSpeed="0" from="222682222#1" to="198876042#0"/>
  <flow id="motorcycle_222682222#1_193253427#0_000c80ba" type="motorcycle" begin="0" end="3600" vehsPerHour="170.84" departLane="best" departPos="random" departSpeed="0" from="222682222#1" to="193253427#0"/>
  <flow id="motorcycle_222682222#1_198876043#0_000c80ba" type="motorcycle" begin="0" end="3600" vehsPerHour="157.61" departLane="best" departPos="random" departSpeed="0" from="222682222#1" to="198876043#0"/>
  <flow id="motorcycle_222682222#1_28231434_000c80ba" type="motorcycle" begin="0" end="3600" vehsPerHour="138.47" departLane="best" departPos="random" departSpeed="0" from="222682222#1" to="28231434"/>
  <flow id="motorcycle_222682222#1_23241821#0_000c80ba" type="motorcycle" begin="0" end="3600" vehsPerHour="114.23" departLane="best" departPos="random" departSpeed="0" from="222682222#1" to="23241821#0"/>
  <flow id="motorcycle_222682222#1_198876042#0_000c80ba" type="motorcycle" begin="0" end="3600" vehsPerHour="102.47" departLane="best" departPos="random" departSpeed="0" from="222682222#1" to="198876042#0"/>
  <flow id="car_193253433#2_198876043#0_000c80ba" type="car" begin="0" end="3600" vehsPerHour="40.65" departLane="best" departPos="random" departSpeed="0" from="193253433#2" to="198876043#0"/>
  <flow id="car_193253433#2_28231434_000c80ba" type="car" begin="0" end="3600" vehsPerHour="32.05" departLane="best" departPos="random" departSpeed="0" from="193253433#2" to="28231434"/>
  <flow id="car_193253433#2_23241821#0_000c80ba" type="car" begin="0" end="3600" vehsPerHour="35.11" departLane="best" departPos="random" departSpeed="0" from="193253433#2" to="23241821#0"/>
  <flow id="car_193253433#2_198876042#0_000c80ba" type="car" begin="0" end="3600" vehsPerHour="27.80" departLane="best" departPos="random" departSpeed="0" from="193253433#2" to="198876042#0"/>
  <flow id="car_193253433#2_193253427#0_000c80ba" type="car" begin="0" end="3600" vehsPerHour="23.57" departLane="best" departPos="random" departSpeed="0" from="193253433#2" to="193253427#0"/>
  <flow id="motorcycle_193253433#2_198876043#0_000c80ba" type="motorcycle" begin="0" end="3600" vehsPerHour="115.64" departLane="best" departPos="random" departSpeed="0" from="193253433#2" to="198876043#0"/>
  <flow id="motorcycle_193253433#2_28231434_000c80ba" type="motorcycle" begin="0" end="3600" vehsPerHour="98.38" departLane="best" departPos="random" departSpeed="0" from="193253433#2" to="28231434"/>
  <flow id="motorcycle_193253433#2_23241821#0_000c80ba" type="motorcycle" begin="0" end="3600" vehsPerHour="89.64" departLane="best" departPos="random" departSpeed="0" from="193253433#2" to="23241821#0"/>
  <flow id="motorcycle_193253433#2_198876042#0_000c80ba" type="motorcycle" begin="0" end="3600" vehsPerHour="80.43" departLane="best" departPos="random" departSpeed="0" from="193253433#2" to="198876042#0"/>
  <flow id="motorcycle_193253433#2_193253427#0_000c80ba" type="motorcycle" begin="0" end="3600" vehsPerHour="64.19" departLane="best" departPos="random" departSpeed="0" from="193253433#2" to="193253427#0"/>
  <flow id="car_198876045#1_28231434_000c80ba" type="car" begin="0" end="3600" vehsPerHour="34.76" departLane="best" departPos="random" departSpeed="0" from="198876045#1" to="28231434"/>
  <flow id="car_198876045#1_23241821#0_000c80ba" type="car" begin="0" end="3600" vehsPerHour="30.42" departLane="best" departPos="random" departSpeed="0" from="198876045#1" to="23241821#0"/>
  <flow id="car_198876045#1_198876042#0_000c80ba" type="car" begin="0" end="3600" vehsPerHour="26.17" departLane="best" departPos="random" departSpeed="0" from="198876045#1" to="198876042#0"/>
  <flow id="car_198876045#1_193253427#0_000c80ba" type="car" begin="0" end="3600" vehsPerHour="23.89" departLane="best" departPos="random" departSpeed="0" from="198876045#1" to="193253427#0"/>
  <flow id="car_198876045#1_198876043#2_000c80ba" type="car" begin="0" end="3600" vehsPerHour="20.79" departLane="best" departPos="random" departSpeed="0" from="198876045#1" to="198876043#2"/>
  <flow id="motorcycle_198876045#1_28231434_000c80ba" type="motorcycle" begin="0" end="3600" vehsPerHour="105.80" departLane="best" departPos="random" departSpeed="0" from="198876045#1" to="28231434"/>
  <flow id="motorcycle_198876045#1_23241821#0_000c80ba" type="motorcycle" begin="0" end="3600" vehsPerHour="91.40" departLane="best" departPos="random" departSpeed="0" from="198876045#1" to="23241821#0"/>
  <flow id="motorcycle_198876045#1_198876042#0_000c80ba" type="motorcycle" begin="0" end="3600" vehsPerHour="82.69" departLane="best" departPos="random" departSpeed="0" from="198876045#1" to="198876042#0"/>
  <flow id="motorcycle_198876045#1_193253427#0_000c80ba" type="motorcycle" begin="0" end="3600" vehsPerHour="75.25" departLane="best" departPos="random" departSpeed="0" from="198876045#1" to="193253427#0"/>
  <flow id="motorcycle_198876045#1_198876043#2_000c80ba" type="motorcycle" begin="0" end="3600" vehsPerHour="66.50" departLane="best" departPos="random" departSpeed="0" from="198876045#1" to="198876043#2"/>
  <flow id="car_-28231434_23241821#0_000c80ba" type="car" begin="0" end="3600" vehsPerHour="24.38" departLane="best" departPos="random" departSpeed="0" from="-28231434" to="23241821#0"/>
  <flow id="car_-28231434_198876042#0_000c80ba" type="car" begin="0" end="3600" vehsPerHour="20.47" departLane="best" departPos="random" departSpeed="0" from="-28231434" to="198876042#0"/>
  <flow id="car_-28231434_193253427#0_000c80ba" type="car" begin="0" end="3600" vehsPerHour="16.20" departLane="best" departPos="random" departSpeed="0" from="-28231434" to="193253427#0"/>
  <flow id="car_-28231434_198876043#2_000c80ba" type="car" begin="0" end="3600" vehsPerHour="16.64" departLane="best" departPos="random" departSpeed="0" from="-28231434" to="198876043#2"/>
  <flow id="car_-28231434_28231434_000c80ba" type="car" begin="0" end="3600" vehsPerHour="13.09" departLane="best" departPos="random" departSpeed="0" from="-28231434" to="28231434"/>
  <flow id="motorcycle_-28231434_23241821#0_000c80ba" type="motorcycle" begin="0" end="3600" vehsPerHour="66.19" departLane="best" departPos="random" departSpeed="0" from="-28231434" to="23241821#0"/>
  <flow id="motorcycle_-28231434_198876042#0_000c80ba" type="motorcycle" begin="0" end="3600" vehsPerHour="62.77" departLane="best" departPos="random" departSpeed="0" from="-28231434" to="198876042#0"/>
  <flow id="motorcycle_-28231434_193253427#0_000c80ba" type="motorcycle" begin="0" end="3600" vehsPerHour="53.08" departLane="best" departPos="random" departSpeed="0" from="-28231434" to="193253427#0"/>
  <flow id="motorcycle_-28231434_198876043#2_000c80ba" type="motorcycle" begin="0" end="3600" vehsPerHour="45.43" departLane="best" departPos="random" departSpeed="0" from="-28231434" to="198876043#2"/>
  <flow id="motorcycle_-28231434_28231434_000c80ba" type="motorcycle" begin="0" end="3600" vehsPerHour="42.11" departLane="best" departPos="random" departSpeed="0" from="-28231434" to="28231434"/>
  <flow id="car_-55029244#0_198876042#0_000c80ba" type="car" begin="0" end="3600" vehsPerHour="26.55" departLane="best" departPos="random" departSpeed="0" from="-55029244#0" to="198876042#0"/>
  <flow id="car_-55029244#0_193253427#0_000c80ba" type="car" begin="0" end="3600" vehsPerHour="23.76" departLane="best" departPos="random" departSpeed="0" from="-55029244#0" to="193253427#0"/>
  <flow id="car_-55029244#0_198876043#2_000c80ba" type="car" begin="0" end="3600" vehsPerHour="20.71" departLane="best" departPos="random" departSpeed="0" from="-55029244#0" to="198876043#2"/>
  <flow id="car_-55029244#0_28231434_000c80ba" type="car" begin="0" end="3600" vehsPerHour="16.88" departLane="best" departPos="random" departSpeed="0" from="-55029244#0" to="28231434"/>
  <flow id="car_-55029244#0_23241821#0_000c80ba" type="car" begin="0" end="3600" vehsPerHour="13.80" departLane="best" departPos="random" departSpeed="0" from="-55029244#0" to="23241821#0"/>
  <flow id="motorcycle_-55029244#0_198876042#0_000c80ba" type="motorcycle" begin="0" end="3600" vehsPerHour="80.98" departLane="best" departPos="random" departSpeed="0" from="-55029244#0" to="198876042#0"/>
  <flow id="motorcycle_-55029244#0_193253427#0_000c80ba" type="motorcycle" begin="0" end="3600" vehsPerHour="69.42" departLane="best" departPos="random" departSpeed="0" from="-55029244#0" to="193253427#0"/>
  <flow id="motorcycle_-55029244#0_198876043#2_000c80ba" type="motorcycle" begin="0" end="3600" vehsPerHour="62.16" departLane="best" departPos="random" departSpeed="0" from="-55029244#0" to="198876043#2"/>
  <flow id="motorcycle_-55029244#0_28231434_000c80ba" type="motorcycle" begin="0" end="3600" vehsPerHour="52.95" departLane="best" departPos="random" departSpeed="0" from="-55029244#0" to="28231434"/>
  <flow id="motorcycle_-55029244#0_23241821#0_000c80ba" type="motorcycle" begin="0" end="3600" vehsPerHour="44.98" departLane="best" departPos="random" departSpeed="0" from="-55029244#0" to="23241821#0"/>
  <flow id="car_34241530#0_198876042#0_000c80ba" type="car" begin="0" end="3600" vehsPerHour="26.90" departLane="best" departPos="random" departSpeed="0" from="34241530#0" to="198876042#0"/>
  <flow id="car_34241530#0_193253427#0_000c80ba" type="car" begin="0" end="3600" vehsPerHour="23.20" departLane="best" departPos="random" departSpeed="0" from="34241530#0" to="193253427#0"/>
  <flow id="car_34241530#0_198876043#2_000c80ba" type="car" begin="0" end="3600" vehsPerHour="19.26" departLane="best" departPos="random" departSpeed="0" from="34241530#0" to="198876043#2"/>
  <flow id="car_34241530#0_28231434_000c80ba" type="car" begin="0" end="3600" vehsPerHour="17.52" departLane="best" departPos="random" departSpeed="0" from="34241530#0" to="28231434"/>
  <flow id="car_34241530#0_23241821#0_000c80ba" type="car" begin="0" end="3600" vehsPerHour="13.78" departLane="best" departPos="random" departSpeed="0" from="34241530#0" to="23241821#0"/>
  <flow id="motorcycle_34241530#0_198876042#0_000c80ba" type="motorcycle" begin="0" end="3600" vehsPerHour="80.55" departLane="best" departPos="random" departSpeed="0" from="34241530#0" to="198876042#0"/>
  <flow id="motorcycle_34241530#0_193253427#0_000c80ba" type="motorcycle" begin="0" end="3600" vehsPerHour="67.60" departLane="best" departPos="random" departSpeed="0" from="34241530#0" to="193253427#0"/>
  <flow id="motorcycle_34241530#0_198876043#2_000c80ba" type="motorcycle" begin="0" end="3600" vehsPerHour="60.46" departLane="best" departPos="random" departSpeed="0" from="34241530#0" to="198876043#2"/>
  <flow id="motorcycle_34241530#0_28231434_000c80ba" type="motorcycle" begin="0" end="3600" vehsPerHour="56.61" departLane="best" departPos="random" departSpeed="0" from="34241530#0" to="28231434"/>
  <flow id="motorcycle_34241530#0_23241821#0_000c80ba" type="motorcycle" begin="0" end="3600" vehsPerHour="47.61" departLane="best" departPos="random" departSpeed="0" from="34241530#0" to="23241821#0"/>
  <flow id="truck_34241530#0_198876042#0_000c80ba" type="truck" begin="0" end="3600" vehsPerHour="12.25" departLane="best" departPos="random" departSpeed="0" from="34241530#0" to="198876042#0"/>
</routes>
