<routes>
<vType id="car" vClass="passenger" accel="2.6" decel="4.5" sigma="0.5" length="5.0" maxSpeed="13.9"/>
<vType id="motorcycle" vClass="motorcycle" accel="3.0" decel="5.0" sigma="0.5" length="2.0" maxSpeed="14.0"/>
<vType id="truck" vClass="truck" accel="1.2" decel="3.5" sigma="0.5" length="12.0" maxSpeed="10.0"/>

  <flow id="car_222682222#1_193253427#0_0001c1f5" type="car" begin="0" end="3600" vehsPerHour="59.60" departLane="best" departPos="random" departSpeed="0" from="222682222#1" to="193253427#0"/>
  <flow id="car_222682222#1_198876043#0_0001c1f5" type="car" begin="0" end="3600" vehsPerHour="52.81" departLane="best" departPos="random" departSpeed="0" from="222682222#1" to="198876043#0"/>
  <flow id="car_222682222#1_28231434_0001c1f5" type="car" begin="0" end="3600" vehsPerHour="50.22" departLane="best" departPos="random" departSpeed="0" from="222682222#1" to="28231434"/>
  <flow id="car_222682222#1_23241821#0_0001c1f5" type="car" begin="0" end="3600" vehsPerHour="38.62" departLane="best" departPos="random" departSpeed="0" from="222682222#1" to="23241821#0"/>
  <flow id="car_222682222#1_198876042#0_0001c1f5" type="car" begin="0" end="3600" vehsPerHour="34.32" departLane="best" departPos="random" departSpeed="0" from="222682222#1" to="198876042#0"/>
  <flow id="motorcycle_222682222#1_193253427#0_0001c1f5" type="motorcycle" begin="0" end="3600" vehsPerHour="177.55" departLane="best" departPos="random" departSpeed="0" from="222682222#1" to="193253427#0"/>
  <flow id="motorcycle_222682222#1_198876043#0_0001c1f5" type="motorcycle" begin="0" end="3600" vehsPerHour="161.74" departLane="best" departPos="random" departSpeed="0" from="222682222#1" to="198876043#0"/>
  <flow id="motorcycle_222682222#1_28231434_0001c1f5" type="motorcycle" begin="0" end="3600" vehsPerHour="137.15" departLane="best" departPos="random" departSpeed="0" from="222682222#1" to="28231434"/>
  <flow id="motorcycle_222682222#1_23241821#0_0001c1f5" type="motorcycle" begin="0" end="3600" vehsPerHour="111.48" departLane="best" departPos="random" departSpeed="0" from="222682222#1" to="23241821#0"/>
  <flow id="motorcycle_222682222#1_198876042#0_0001c1f5" type="motorcycle" begin="0" end="3600" vehsPerHour="105.36" departLane="best" departPos="random" departSpeed="0" from="222682222#1" to="198876042#0"/>
  <flow id="car_193253433#2_198876043#0_0001c1f5" type="car" begin="0" end="3600" vehsPerHour="41.01" departLane="best" departPos="random" departSpeed="0" from="193253433#2" to="198876043#0"/>
  <flow id="car_193253433#2_28231434_0001c1f5" type="car" begin="0" end="3600" vehsPerHour="32.47" departLane="best" departPos="random" departSpeed="0" from="193253433#2" to="28231434"/>
  <flow id="car_193253433#2_23241821#0_0001c1f5" type="car" begin="0" end="3600" vehsPerHour="35.24" departLane="best" departPos="random" departSpeed="0" from="193253433#2" to="23241821#0"/>
  <flow id="car_193253433#2_198876042#0_0001c1f5" type="car" begin="0" end="3600" vehsPerHour="28.21" departLane="best" departPos="random" departSpeed="0" from="193253433#2" to="198876042#0"/>
  <flow id="car_193253433#2_193253427#0_0001c1f5" type="car" begin="0" end="3600" vehsPerHour="23.64" departLane="best" departPos="random" departSpeed="0" from="193253433#2" to="193253427#0"/>
  <flow id="motorcycle_193253433#2_198876043#0_0001c1f5" type="motorcycle" begin="0" end="3600" vehsPerHour="114.32" departLane="best" departPos="random" departSpeed="0" from="193253433#2" to="198876043#0"/>
  <flow id="motorcycle_193253433#2_28231434_0001c1f5" type="motorcycle" begin="0" end="3600" vehsPerHour="100.07" departLane="best" departPos="random" departSpeed="0" from="193253433#2" to="28231434"/>
  <flow id="motorcycle_193253433#2_23241821#0_0001c1f5" type="motorcycle" begin="0" end="3600" vehsPerHour="95.72" departLane="best" departPos="random" departSpeed="0" from="193253433#2" to="23241821#0"/>
  <flow id="motorcycle_193253433#2_198876042#0_0001c1f5" type="motorcycle" begin="0" end="3600" vehsPerHour="77.26" departLane="best" departPos="random" departSpeed="0" from="193253433#2" to="198876042#0"/>
  <flow id="motorcycle_193253433#2_193253427#0_0001c1f5" type="motorcycle" begin="0" end="3600" vehsPerHour="65.93" departLane="best" departPos="random" departSpeed="0" from="193253433#2" to="193253427#0"/>
  <flow id="car_198876045#1_28231434_0001c1f5" type="car" begin="0" end="3600" vehsPerHour="34.02" departLane="best" departPos="random" departSpeed="0" from="198876045#1" to="28231434"/>
  <flow id="car_198876045#1_23241821#0_0001c1f5" type="car" begin="0" end="3600" vehsPerHour="30.51" departLane="best" departPos="random" departSpeed="0" from="198876045#1" to="23241821#0"/>
  <flow id="car_198876045#1_198876042#0_0001c1f5" type="car" begin="0" end="3600" vehsPerHour="26.98" departLane="best" departPos="random" departSpeed="0" from="198876045#1" to="198876042#0"/>
  <flow id="car_198876045#1_193253427#0_0001c1f5" type="car" begin="0" end="3600" vehsPerHour="23.96" departLane="best" departPos="random" departSpeed="0" from="198876045#1" to="193253427#0"/>
  <flow id="car_198876045#1_198876043#2_0001c1f5" type="car" begin="0" end="3600" vehsPerHour="20.77" departLane="best" departPos="random" departSpeed="0" from="198876045#1" to="198876043#2"/>
  <flow id="motorcycle_198876045#1_28231434_0001c1f5" type="motorcycle" begin="0" end="3600" vehsPerHour="100.55" departLane="best" departPos="random" departSpeed="0" from="198876045#1" to="28231434"/>
  <flow id="motorcycle_198876045#1_23241821#0_0001c1f5" type="motorcycle" begin="0" end="3600" vehsPerHour="83.55" departLane="best" departPos="random" departSpeed="0" from="198876045#1" to="23241821#0"/>
  <flow id="motorcycle_198876045#1_198876042#0_0001c1f5" type="motorcycle" begin="0" end="3600" vehsPerHour="81.07" departLane="best" departPos="random" departSpeed="0" from="198876045#1" to="198876042#0"/>
  <flow id="motorcycle_198876045#1_193253427#0_0001c1f5" type="motorcycle" begin="0" end="3600" vehsPerHour="73.16" departLane="best" departPos="random" departSpeed="0" from="198876045#1" to="193253427#0"/>
  <flow id="motorcycle_198876045#1_198876043#2_0001c1f5" type="motorcycle" begin="0" end="3600" vehsPerHour="67.19" departLane="best" departPos="random" departSpeed="0" from="198876045#1" to="198876043#2"/>
  <flow id="car_-28231434_23241821#0_0001c1f5" type="car" begin="0" end="3600" vehsPerHour="23.69" departLane="best" departPos="random" departSpeed="0" from="-28231434" to="23241821#0"/>
  <flow id="car_-28231434_198876042#0_0001c1f5" type="car" begin="0" end="3600" vehsPerHour="19.56" departLane="best" departPos="random" departSpeed="0" from="-28231434" to="198876042#0"/>
  <flow id="car_-28231434_193253427#0_0001c1f5" type="car" begin="0" end="3600" vehsPerHour="17.20" departLane="best" departPos="random" departSpeed="0" from="-28231434" to="193253427#0"/>
  <flow id="car_-28231434_198876043#2_0001c1f5" type="car" begin="0" end="3600" vehsPerHour="16.73" departLane="best" departPos="random" departSpeed="0" from="-28231434" to="198876043#2"/>
  <flow id="car_-28231434_28231434_0001c1f5" type="car" begin="0" end="3600" vehsPerHour="13.04" departLane="best" departPos="random" departSpeed="0" from="-28231434" to="28231434"/>
  <flow id="motorcycle_-28231434_23241821#0_0001c1f5" type="motorcycle" begin="0" end="3600" vehsPerHour="70.60" departLane="best" departPos="random" departSpeed="0" from="-28231434" to="23241821#0"/>
  <flow id="motorcycle_-28231434_198876042#0_0001c1f5" type="motorcycle" begin="0" end="3600" vehsPerHour="59.10" departLane="best" departPos="random" departSpeed="0" from="-28231434" to="198876042#0"/>
  <flow id="motorcycle_-28231434_193253427#0_0001c1f5" type="motorcycle" begin="0" end="3600" vehsPerHour="53.94" departLane="best" departPos="random" departSpeed="0" from="-28231434" to="193253427#0"/>
  <flow id="motorcycle_-28231434_198876043#2_0001c1f5" type="motorcycle" begin="0" end="3600" vehsPerHour="45.26" departLane="best" departPos="random" departSpeed="0" from="-28231434" to="198876043#2"/>
  <flow id="motorcycle_-28231434_28231434_0001c1f5" type="motorcycle" begin="0" end="3600" vehsPerHour="42.21" departLane="best" departPos="random" departSpeed="0" from="-28231434" to="28231434"/>
  <flow id="car_-55029244#0_198876042#0_0001c1f5" type="car" begin="0" end="3600" vehsPerHour="27.88" departLane="best" departPos="random" departSpeed="0" from="-55029244#0" to="198876042#0"/>
  <flow id="car_-55029244#0_193253427#0_0001c1f5" type="car" begin="0" end="3600" vehsPerHour="23.77" departLane="best" departPos="random" departSpeed="0" from="-55029244#0" to="193253427#0"/>
  <flow id="car_-55029244#0_198876043#2_0001c1f5" type="car" begin="0" end="3600" vehsPerHour="20.44" departLane="best" departPos="random" departSpeed="0" from="-55029244#0" to="198876043#2"/>
  <flow id="car_-55029244#0_28231434_0001c1f5" type="car" begin="0" end="3600" vehsPerHour="17.31" departLane="best" departPos="random" departSpeed="0" from="-55029244#0" to="28231434"/>
  <flow id="car_-55029244#0_23241821#0_0001c1f5" type="car" begin="0" end="3600" vehsPerHour="13.97" departLane="best" departPos="random" departSpeed="0" from="-55029244#0" to="23241821#0"/>
  <flow id="motorcycle_-55029244#0_198876042#0_0001c1f5" type="motorcycle" begin="0" end="3600" vehsPerHour="80.87" departLane="best" departPos="random" departSpeed="0" from="-55029244#0" to="198876042#0"/>
  <flow id="motorcycle_-55029244#0_193253427#0_0001c1f5" type="motorcycle" begin="0" end="3600" vehsPerHour="64.95" departLane="best" departPos="random" departSpeed="0" from="-55029244#0" to="193253427#0"/>
  <flow id="motorcycle_-55029244#0_198876043#2_0001c1f5" type="motorcycle" begin="0" end="3600" vehsPerHour="63.21" departLane="best" departPos="random" departSpeed="0" from="-55029244#0" to="198876043#2"/>
  <flow id="motorcycle_-55029244#0_28231434_0001c1f5" type="motorcycle" begin="0" end="3600" vehsPerHour="54.36" departLane="best" departPos="random" departSpeed="0" from="-55029244#0" to="28231434"/>
  <flow id="motorcycle_-55029244#0_23241821#0_0001c1f5" type="motorcycle" begin="0" end="3600" vehsPerHour="46.46" departLane="best" departPos="random" departSpeed="0" from="-55029244#0" to="23241821#0"/>
  <flow id="car_34241530#0_198876042#0_0001c1f5" type="car" begin="0" end="3600" vehsPerHour="26.17" departLane="best" departPos="random" departSpeed="0" from="34241530#0" to="198876042#0"/>
  <flow id="car_34241530#0_193253427#0_0001c1f5" type="car" begin="0" end="3600" vehsPerHour="22.60" departLane="best" departPos="random" departSpeed="0" from="34241530#0" to="193253427#0"/>
  <flow id="car_34241530#0_198876043#2_0001c1f5" type="car" begin="0" end="3600" vehsPerHour="19.37" departLane="best" departPos="random" departSpeed="0" from="34241530#0" to="198876043#2"/>
  <flow id="car_34241530#0_28231434_0001c1f5" type="car" begin="0" end="3600" vehsPerHour="16.73" departLane="best" departPos="random" departSpeed="0" from="34241530#0" to="28231434"/>
  <flow id="car_34241530#0_23241821#0_0001c1f5" type="car" begin="0" end="3600" vehsPerHour="13.04" departLane="best" departPos="random" departSpeed="0" from="34241530#0" to="23241821#0"/>
  <flow id="motorcycle_34241530#0_198876042#0_0001c1f5" type="motorcycle" begin="0" end="3600" vehsPerHour="84.11" departLane="best" departPos="random" departSpeed="0" from="34241530#0" to="198876042#0"/>
  <flow id="motorcycle_34241530#0_193253427#0_0001c1f5" type="motorcycle" begin="0" end="3600" vehsPerHour="65.97" departLane="best" departPos="random" departSpeed="0" from="34241530#0" to="193253427#0"/>
  <flow id="motorcycle_34241530#0_198876043#2_0001c1f5" type="motorcycle" begin="0" end="3600" vehsPerHour="58.15" departLane="best" departPos="random" departSpeed="0" from="34241530#0" to="198876043#2"/>
  <flow id="motorcycle_34241530#0_28231434_0001c1f5" type="motorcycle" begin="0" end="3600" vehsPerHour="52.87" departLane="best" departPos="random" departSpeed="0" from="34241530#0" to="28231434"/>
  <flow id="motorcycle_34241530#0_23241821#0_0001c1f5" type="motorcycle" begin="0" end="3600" vehsPerHour="46.74" departLane="best" departPos="random" departSpeed="0" from="34241530#0" to="23241821#0"/>
  <flow id="truck_34241530#0_198876042#0_0001c1f5" type="truck" begin="0" end="3600" vehsPerHour="12.10" departLane="best" departPos="random" departSpeed="0" from="34241530#0" to="198876042#0"/>
</routes>
