<routes>
<vType id="car" vClass="passenger" accel="2.6" decel="4.5" sigma="0.5" length="5.0" maxSpeed="13.9"/>
<vType id="motorcycle" vClass="motorcycle" accel="3.0" decel="5.0" sigma="0.5" length="2.0" maxSpeed="14.0"/>
<vType id="truck" vClass="truck" accel="1.2" decel="3.5" sigma="0.5" length="12.0" maxSpeed="10.0"/>

  <flow id="car_222682222#1_193253427#0_000a96b0" type="car" begin="0" end="3600" vehsPerHour="59.07" departLane="best" departPos="random" departSpeed="0" from="222682222#1" to="193253427#0"/>
  <flow id="car_222682222#1_198876043#0_000a96b0" type="car" begin="0" end="3600" vehsPerHour="50.35" departLane="best" departPos="random" departSpeed="0" from="222682222#1" to="198876043#0"/>
  <flow id="car_222682222#1_28231434_000a96b0" type="car" begin="0" end="3600" vehsPerHour="52.79" departLane="best" departPos="random" departSpeed="0" from="222682222#1" to="28231434"/>
  <flow id="car_222682222#1_23241821#0_000a96b0" type="car" begin="0" end="3600" vehsPerHour="40.58" departLane="best" departPos="random" departSpeed="0" from="222682222#1" to="23241821#0"/>
  <flow id="car_222682222#1_198876042#0_000a96b0" type="car" begin="0" end="3600" vehsPerHour="32.89" departLane="best" departPos="random" departSpeed="0" from="222682222#1" to="198876042#0"/>
  <flow id="motorcycle_222682222#1_193253427#0_000a96b0" type="motorcycle" begin="0" end="3600" vehsPerHour="182.14" departLane="best" departPos="random" departSpeed="0" from="222682222#1" to="193253427#0"/>
  <flow id="motorcycle_222682222#1_198876043#0_000a96b0" type="motorcycle" begin="0" end="3600" vehsPerHour="149.01" departLane="best" departPos="random" departSpeed="0" from="222682222#1" to="198876043#0"/>
  <flow id="motorcycle_222682222#1_28231434_000a96b0" type="motorcycle" begin="0" end="3600" vehsPerHour="144.64" departLane="best" departPos="random" departSpeed="0" from="222682222#1" to="28231434"/>
  <flow id="motorcycle_222682222#1_23241821#0_000a96b0" type="motorcycle" begin="0" end="3600" vehsPerHour="119.75" departLane="best" departPos="random" departSpeed="0" from="222682222#1" to="23241821#0"/>
  <flow id="motorcycle_222682222#1_198876042#0_000a96b0" type="motorcycle" begin="0" end="3600" vehsPerHour="102.97" departLane="best" departPos="random" departSpeed="0" from="222682222#1" to="198876042#0"/>
  <flow id="car_193253433#2_198876043#0_000a96b0" type="car" begin="0" end="3600" vehsPerHour="41.83" departLane="best" departPos="random" departSpeed="0" from="193253433#2" to="198876043#0"/>
  <flow id="car_193253433#2_28231434_000a96b0" type="car" begin="0" end="3600" vehsPerHour="35.19" departLane="best" departPos="random" departSpeed="0" from="193253433#2" to="28231434"/>
  <flow id="car_193253433#2_23241821#0_000a96b0" type="car" begin="0" end="3600" vehsPerHour="34.19" departLane="best" departPos="random" departSpeed="0" from="193253433#2" to="23241821#0"/>
  <flow id="car_193253433#2_198876042#0_000a96b0" type="car" begin="0" end="3600" vehsPerHour="27.75" departLane="best" departPos="random" departSpeed="0" from="193253433#2" to="198876042#0"/>
  <flow id="car_193253433#2_193253427#0_000a96b0" type="car" begin="0" end="3600" vehsPerHour="23.00" departLane="best" departPos="random" departSpeed="0" from="193253433#2" to="193253427#0"/>
  <flow id="motorcycle_193253433#2_198876043#0_000a96b0" type="motorcycle" begin="0" end="3600" vehsPerHour="116.96" departLane="best" departPos="random" departSpeed="0" from="193253433#2" to="198876043#0"/>
  <flow id="motorcycle_193253433#2_28231434_000a96b0" type="motorcycle" begin="0" end="3600" vehsPerHour="99.26" departLane="best" departPos="random" departSpeed="0" from="193253433#2" to="28231434"/>
  <flow id="motorcycle_193253433#2_23241821#0_000a96b0" type="motorcycle" begin="0" end="3600" vehsPerHour="93.65" departLane="best" departPos="random" departSpeed="0" from="193253433#2" to="23241821#0"/>
  <flow id="motorcycle_193253433#2_198876042#0_000a96b0" type="motorcycle" begin="0" end="3600" vehsPerHour="79.55" departLane="best" departPos="random" departSpeed="0" from="193253433#2" to="198876042#0"/>
  <flow id="motorcycle_193253433#2_193253427#0_000a96b0" type="motorcycle" begin="0" end="3600" vehsPerHour="67.99" departLane="best" departPos="random" departSpeed="0" from="193253433#2" to="193253427#0"/>
  <flow id="car_198876045#1_28231434_000a96b0" type="car" begin="0" end="3600" vehsPerHour="33.89" departLane="best" departPos="random" departSpeed="0" from="198876045#1" to="28231434"/>
  <flow id="car_198876045#1_23241821#0_000a96b0" type="car" begin="0" end="3600" vehsPerHour="30.90" departLane="best" departPos="random" departSpeed="0" from="198876045#1" to="23241821#0"/>
  <flow id="car_198876045#1_198876042#0_000a96b0" type="car" begin="0" end="3600" vehsPerHour="27.07" departLane="best" departPos="random" departSpeed="0" from="198876045#1" to="198876042#0"/>
  <flow id="car_198876045#1_193253427#0_000a96b0" type="car" begin="0" end="3600" vehsPerHour="24.24" departLane="best" departPos="random" departSpeed="0" from="198876045#1" to="193253427#0"/>
  <flow id="car_198876045#1_198876043#2_000a96b0" type="car" begin="0" end="3600" vehsPerHour="20.40" departLane="best" departPos="random" departSpeed="0" from="198876045#1" to="198876043#2"/>
  <flow id="motorcycle_198876045#1_28231434_000a96b0" type="motorcycle" begin="0" end="3600" vehsPerHour="98.46" departLane="best" departPos="random" departSpeed="0" from="198876045#1" to="28231434"/>
  <flow id="motorcycle_198876045#1_23241821#0_000a96b0" type="motorcycle" begin="0" end="3600" vehsPerHour="90.83" departLane="best" departPos="random" departSpeed="0" from="198876045#1" to="23241821#0"/>
  <flow id="motorcycle_198876045#1_198876042#0_000a96b0" type="motorcycle" begin="0" end="3600" vehsPerHour="79.42" departLane="best" departPos="random" departSpeed="0" from="198876045#1" to="198876042#0"/>
  <flow id="motorcycle_198876045#1_193253427#0_000a96b0" type="motorcycle" begin="0" end="3600" vehsPerHour="75.36" departLane="best" departPos="random" departSpeed="0" from="198876045#1" to="193253427#0"/>
  <flow id="motorcycle_198876045#1_198876043#2_000a96b0" type="motorcycle" begin="0" end="3600" vehsPerHour="70.03" departLane="best" departPos="random" departSpeed="0" from="198876045#1" to="198876043#2"/>
  <flow id="car_-28231434_23241821#0_000a96b0" type="car" begin="0" end="3600" vehsPerHour="23.03" departLane="best" departPos="random" departSpeed="0" from="-28231434" to="23241821#0"/>
  <flow id="car_-28231434_198876042#0_000a96b0" type="car" begin="0" end="3600" vehsPerHour="19.86" departLane="best" departPos="random" departSpeed="0" from="-28231434" to="198876042#0"/>
  <flow id="car_-28231434_193253427#0_000a96b0" type="car" begin="0" end="3600" vehsPerHour="16.47" departLane="best" departPos="random" departSpeed="0" from="-28231434" to="193253427#0"/>
  <flow id="car_-28231434_198876043#2_000a96b0" type="car" begin="0" end="3600" vehsPerHour="16.77" departLane="best" departPos="random" departSpeed="0" from="-28231434" to="198876043#2"/>
  <flow id="car_-28231434_28231434_000a96b0" type="car" begin="0" end="3600" vehsPerHour="13.66" departLane="best" departPos="random" departSpeed="0" from="-28231434" to="28231434"/>
  <flow id="motorcycle_-28231434_23241821#0_000a96b0" type="motorcycle" begin="0" end="3600" vehsPerHour="65.91" departLane="best" departPos="random" departSpeed="0" from="-28231434" to="23241821#0"/>
  <flow id="motorcycle_-28231434_198876042#0_000a96b0" type="motorcycle" begin="0" end="3600" vehsPerHour="63.24" departLane="best" departPos="random" departSpeed="0" from="-28231434" to="198876042#0"/>
  <flow id="motorcycle_-28231434_193253427#0_000a96b0" type="motorcycle" begin="0" end="3600" vehsPerHour="55.49" departLane="best" departPos="random" departSpeed="0" from="-28231434" to="193253427#0"/>
  <flow id="motorcycle_-28231434_198876043#2_000a96b0" type="motorcycle" begin="0" end="3600" vehsPerHour="47.82" departLane="best" departPos="random" departSpeed="0" from="-28231434" to="198876043#2"/>
  <flow id="motorcycle_-28231434_28231434_000a96b0" type="motorcycle" begin="0" end="3600" vehsPerHour="39.05" departLane="best" departPos="random" departSpeed="0" from="-28231434" to="28231434"/>
  <flow id="car_-55029244#0_198876042#0_000a96b0" type="car" begin="0" end="3600" vehsPerHour="26.04" departLane="best" departPos="random" departSpeed="0" from="-55029244#0" to="198876042#0"/>
  <flow id="car_-55029244#0_193253427#0_000a96b0" type="car" begin="0" end="3600" vehsPerHour="23.01" departLane="best" departPos="random" departSpeed="0" from="-55029244#0" to="193253427#0"/>
  <flow id="car_-55029244#0_198876043#2_000a96b0" type="car" begin="0" end="3600" vehsPerHour="19.39" departLane="best" departPos="random" departSpeed="0" from="-55029244#0" to="198876043#2"/>
  <flow id="car_-55029244#0_28231434_000a96b0" type="car" begin="0" end="3600" vehsPerHour="16.41" departLane="best" departPos="random" departSpeed="0" from="-55029244#0" to="28231434"/>
  <flow id="car_-55029244#0_23241821#0_000a96b0" type="car" begin="0" end="3600" vehsPerHour="13.48" departLane="best" departPos="random" departSpeed="0" from="-55029244#0" to="23241821#0"/>
  <flow id="motorcycle_-55029244#0_198876042#0_000a96b0" type="motorcycle" begin="0" end="3600" vehsPerHour="82.20" departLane="best" departPos="random" departSpeed="0" from="-55029244#0" to="198876042#0"/>
  <flow id="motorcycle_-55029244#0_193253427#0_000a96b0" type="motorcycle" begin="0" end="3600" vehsPerHour="68.96" departLane="best" departPos="random" departSpeed="0" from="-55029244#0" to="193253427#0"/>
  <flow id="motorcycle_-55029244#0_198876043#2_000a96b0" type="motorcycle" begin="0" end="3600" vehsPerHour="58.54" departLane="best" departPos="random" departSpeed="0" from="-55029244#0" to="198876043#2"/>
  <flow id="motorcycle_-55029244#0_28231434_000a96b0" type="motorcycle" begin="0" end="3600" vehsPerHour="55.97" departLane="best" departPos="random" departSpeed="0" from="-55029244#0" to="28231434"/>
  <flow id="motorcycle_-55029244#0_23241821#0_000a96b0" type="motorcycle" begin="0" end="3600" vehsPerHour="46.75" departLane="best" departPos="random" departSpeed="0" from="-55029244#0" to="23241821#0"/>
  <flow id="car_34241530#0_198876042#0_000a96b0" type="car" begin="0" end="3600" vehsPerHour="27.70" departLane="best" departPos="random" departSpeed="0" from="34241530#0" to="198876042#0"/>
  <flow id="car_34241530#0_193253427#0_000a96b0" type="car" begin="0" end="3600" vehsPerHour="24.52" departLane="best" departPos="random" departSpeed="0" from="34241530#0" to="193253427#0"/>
  <flow id="car_34241530#0_198876043#2_000a96b0" type="car" begin="0" end="3600" vehsPerHour="19.64" departLane="best" departPos="random" departSpeed="0" from="34241530#0" to="198876043#2"/>
  <flow id="car_34241530#0_28231434_000a96b0" type="car" begin="0" end="3600" vehsPerHour="17.63" departLane="best" departPos="random" departSpeed="0" from="34241530#0" to="28231434"/>
  <flow id="car_34241530#0_23241821#0_000a96b0" type="car" begin="0" end="3600" vehsPerHour="13.33" departLane="best" departPos="random" departSpeed="0" from="34241530#0" to="23241821#0"/>
  <flow id="motorcycle_34241530#0_198876042#0_000a96b0" type="motorcycle" begin="0" end="3600" vehsPerHour="82.16" departLane="best" departPos="random" departSpeed="0" from="34241530#0" to="198876042#0"/>
  <flow id="motorcycle_34241530#0_193253427#0_000a96b0" type="motorcycle" begin="0" end="3600" vehsPerHour="66.34" departLane="best" departPos="random" departSpeed="0" from="34241530#0" to="193253427#0"/>
  <flow id="motorcycle_34241530#0_198876043#2_000a96b0" type="motorcycle" begin="0" end="3600" vehsPerHour="58.75" departLane="best" departPos="random" departSpeed="0" from="34241530#0" to="198876043#2"/>
  <flow id="motorcycle_34241530#0_28231434_000a96b0" type="motorcycle" begin="0" end="3600" vehsPerHour="54.56" departLane="best" departPos="random" departSpeed="0" from="34241530#0" to="28231434"/>
  <flow id="motorcycle_34241530#0_23241821#0_000a96b0" type="motorcycle" begin="0" end="3600" vehsPerHour="44.90" departLane="best" departPos="random" departSpeed="0" from="34241530#0" to="23241821#0"/>
  <flow id="truck_34241530#0_198876042#0_000a96b0" type="truck" begin="0" end="3600" vehsPerHour="11.21" departLane="best" departPos="random" departSpeed="0" from="34241530#0" to="198876042#0"/>
</routes>
