<routes>
<vType id="car" vClass="passenger" accel="2.6" decel="4.5" sigma="0.5" length="5.0" maxSpeed="13.9"/>
<vType id="motorcycle" vClass="motorcycle" accel="3.0" decel="5.0" sigma="0.5" length="2.0" maxSpeed="14.0"/>
<vType id="truck" vClass="truck" accel="1.2" decel="3.5" sigma="0.5" length="12.0" maxSpeed="10.0"/>

  <flow id="car_222682222#1_193253427#0_00084a9c" type="car" begin="0" end="3600" vehsPerHour="63.31" departLane="best" departPos="random" departSpeed="0" from="222682222#1" to="193253427#0"/>
  <flow id="car_222682222#1_198876043#0_00084a9c" type="car" begin="0" end="3600" vehsPerHour="51.12" departLane="best" departPos="random" departSpeed="0" from="222682222#1" to="198876043#0"/>
  <flow id="car_222682222#1_28231434_00084a9c" type="car" begin="0" end="3600" vehsPerHour="49.43" departLane="best" departPos="random" departSpeed="0" from="222682222#1" to="28231434"/>
  <flow id="car_222682222#1_23241821#0_00084a9c" type="car" begin="0" end="3600" vehsPerHour="38.96" departLane="best" departPos="random" departSpeed="0" from="222682222#1" to="23241821#0"/>
  <flow id="car_222682222#1_198876042#0_00084a9c" type="car" begin="0" end="3600" vehsPerHour="33.17" departLane="best" departPos="random" departSpeed="0" from="222682222#1" to="198876042#0"/>
  <flow id="motorcycle_222682222#1_193253427#0_00084a9c" type="motorcycle" begin="0" end="3600" vehsPerHour="183.37" departLane="best" departPos="random" departSpeed="0" from="222682222#1" to="193253427#0"/>
  <flow id="motorcycle_222682222#1_198876043#0_00084a9c" type="motorcycle" begin="0" end="3600" vehsPerHour="151.82" departLane="best" departPos="random" departSpeed="0" from="222682222#1" to="198876043#0"/>
  <flow id="motorcycle_222682222#1_28231434_00084a9c" type="motorcycle" begin="0" end="3600" vehsPerHour="148.01" departLane="best" departPos="random" departSpeed="0" from="222682222#1" to="28231434"/>
  <flow id="motorcycle_222682222#1_23241821#0_00084a9c" type="motorcycle" begin="0" end="3600" vehsPerHour="113.63" departLane="best" departPos="random" departSpeed="0" from="222682222#1" to="23241821#0"/>
  <flow id="motorcycle_222682222#1_198876042#0_00084a9c" type="motorcycle" begin="0" end="3600" vehsPerHour="103.89" departLane="best" departPos="random" departSpeed="0" from="222682222#1" to="198876042#0"/>
  <flow id="car_193253433#2_198876043#0_00084a9c" type="car" begin="0" end="3600" vehsPerHour="40.25" departLane="best" departPos="random" departSpeed="0" from="193253433#2" to="198876043#0"/>
  <flow id="car_193253433#2_28231434_00084a9c" type="car" begin="0" end="3600" vehsPerHour="34.12" departLane="best" departPos="random" departSpeed="0" from="193253433#2" to="28231434"/>
  <flow id="car_193253433#2_23241821#0_00084a9c" type="car" begin="0" end="3600" vehsPerHour="34.32" departLane="best" departPos="random" departSpeed="0" from="193253433#2" to="23241821#0"/>
  <flow id="car_193253433#2_198876042#0_00084a9c" type="car" begin="0" end="3600" vehsPerHour="26.62" departLane="best" departPos="random" departSpeed="0" from="193253433#2" to="198876042#0"/>
  <flow id="car_193253433#2_193253427#0_00084a9c" type="car" begin="0" end="3600" vehsPerHour="23.72" departLane="best" departPos="random" departSpeed="0" from="193253433#2" to="193253427#0"/>
  <flow id="motorcycle_193253433#2_198876043#0_00084a9c" type="motorcycle" begin="0" end="3600" vehsPerHour="118.54" departLane="best" departPos="random" departSpeed="0" from="193253433#2" to="198876043#0"/>
  <flow id="motorcycle_193253433#2_28231434_00084a9c" type="motorcycle" begin="0" end="3600" vehsPerHour="101.81" departLane="best" departPos="random" departSpeed="0" from="193253433#2" to="28231434"/>
  <flow id="motorcycle_193253433#2_23241821#0_00084a9c" type="motorcycle" begin="0" end="3600" vehsPerHour="92.67" departLane="best" departPos="random" departSpeed="0" from="193253433#2" to="23241821#0"/>
  <flow id="motorcycle_193253433#2_198876042#0_00084a9c" type="motorcycle" begin="0" end="3600" vehsPerHour="78.27" departLane="best" departPos="random" departSpeed="0" from="193253433#2" to="198876042#0"/>
  <flow id="motorcycle_193253433#2_193253427#0_00084a9c" type="motorcycle" begin="0" end="3600" vehsPerHour="69.00" departLane="best" departPos="random" departSpeed="0" from="193253433#2" to="193253427#0"/>
  <flow id="car_198876045#1_28231434_00084a9c" type="car" begin="0" end="3600" vehsPerHour="34.27" departLane="best" departPos="random" departSpeed="0" from="198876045#1" to="28231434"/>
  <flow id="car_198876045#1_23241821#0_00084a9c" type="car" begin="0" end="3600" vehsPerHour="31.60" departLane="best" departPos="random" departSpeed="0" from="198876045#1" to="23241821#0"/>
  <flow id="car_198876045#1_198876042#0_00084a9c" type="car" begin="0" end="3600" vehsPerHour="28.01" departLane="best" departPos="random" departSpeed="0" from="198876045#1" to="198876042#0"/>
  <flow id="car_198876045#1_193253427#0_00084a9c" type="car" begin="0" end="3600" vehsPerHour="22.46" departLane="best" departPos="random" departSpeed="0" from="198876045#1" to="193253427#0"/>
  <flow id="car_198876045#1_198876043#2_00084a9c" type="car" begin="0" end="3600" vehsPerHour="20.11" departLane="best" departPos="random" departSpeed="0" from="198876045#1" to="198876043#2"/>
  <flow id="motorcycle_198876045#1_28231434_00084a9c" type="motorcycle" begin="0" end="3600" vehsPerHour="103.23" departLane="best" departPos="random" departSpeed="0" from="198876045#1" to="28231434"/>
  <flow id="motorcycle_198876045#1_23241821#0_00084a9c" type="motorcycle" begin="0" end="3600" vehsPerHour="87.79" departLane="best" departPos="random" departSpeed="0" from="198876045#1" to="23241821#0"/>
  <flow id="motorcycle_198876045#1_198876042#0_00084a9c" type="motorcycle" begin="0" end="3600" vehsPerHour="79.24" departLane="best" departPos="random" departSpeed="0" from="198876045#1" to="198876042#0"/>
  <flow id="motorcycle_198876045#1_193253427#0_00084a9c" type="motorcycle" begin="0" end="3600" vehsPerHour="70.97" departLane="best" departPos="random" departSpeed="0" from="198876045#1" to="193253427#0"/>
  <flow id="motorcycle_198876045#1_198876043#2_00084a9c" type="motorcycle" begin="0" end="3600" vehsPerHour="66.88" departLane="best" departPos="random" departSpeed="0" from="198876045#1" to="198876043#2"/>
  <flow id="car_-28231434_23241821#0_00084a9c" type="car" begin="0" end="3600" vehsPerHour="24.18" departLane="best" departPos="random" departSpeed="0" from="-28231434" to="23241821#0"/>
  <flow id="car_-28231434_198876042#0_00084a9c" type="car" begin="0" end="3600" vehsPerHour="19.41" departLane="best" departPos="random" departSpeed="0" from="-28231434" to="198876042#0"/>
  <flow id="car_-28231434_193253427#0_00084a9c" type="car" begin="0" end="3600" vehsPerHour="16.35" departLane="best" departPos="random" departSpeed="0" from="-28231434" to="193253427#0"/>
  <flow id="car_-28231434_198876043#2_00084a9c" type="car" begin="0" end="3600" vehsPerHour="17.68" departLane="best" departPos="random" departSpeed="0" from="-28231434" to="198876043#2"/>
  <flow id="car_-28231434_28231434_00084a9c" type="car" begin="0" end="3600" vehsPerHour="13.25" departLane="best" departPos="random" departSpeed="0" from="-28231434" to="28231434"/>
  <flow id="motorcycle_-28231434_23241821#0_00084a9c" type="motorcycle" begin="0" end="3600" vehsPerHour="70.00" departLane="best" departPos="random" departSpeed="0" from="-28231434" to="23241821#0"/>
  <flow id="motorcycle_-28231434_198876042#0_00084a9c" type="motorcycle" begin="0" end="3600" vehsPerHour="61.87" departLane="best" departPos="random" departSpeed="0" from="-28231434" to="198876042#0"/>
  <flow id="motorcycle_-28231434_193253427#0_00084a9c" type="motorcycle" begin="0" end="3600" vehsPerHour="56.53" departLane="best" departPos="random" departSpeed="0" from="-28231434" to="193253427#0"/>
  <flow id="motorcycle_-28231434_198876043#2_00084a9c" type="motorcycle" begin="0" end="3600" vehsPerHour="46.95" departLane="best" departPos="random" departSpeed="0" from="-28231434" to="198876043#2"/>
  <flow id="motorcycle_-28231434_28231434_00084a9c" type="motorcycle" begin="0" end="3600" vehsPerHour="40.52" departLane="best" departPos="random" departSpeed="0" from="-28231434" to="28231434"/>
  <flow id="car_-55029244#0_198876042#0_00084a9c" type="car" begin="0" end="3600" vehsPerHour="26.23" departLane="best" departPos="random" departSpeed="0" from="-55029244#0" to="198876042#0"/>
  <flow id="car_-55029244#0_193253427#0_00084a9c" type="car" begin="0" end="3600" vehsPerHour="22.56" departLane="best" departPos="random" departSpeed="0" from="-55029244#0" to="193253427#0"/>
  <flow id="car_-55029244#0_198876043#2_00084a9c" type="car" begin="0" end="3600" vehsPerHour="19.82" departLane="best" departPos="random" departSpeed="0" from="-55029244#0" to="198876043#2"/>
  <flow id="car_-55029244#0_28231434_00084a9c" type="car" begin="0" end="3600" vehsPerHour="17.36" departLane="best" departPos="random" departSpeed="0" from="-55029244#0" to="28231434"/>
  <flow id="car_-55029244#0_23241821#0_00084a9c" type="car" begin="0" end="3600" vehsPerHour="13.27" departLane="best" departPos="random" departSpeed="0" from="-55029244#0" to="23241821#0"/>
  <flow id="motorcycle_-55029244#0_198876042#0_00084a9c" type="motorcycle" begin="0" end="3600" vehsPerHour="79.20" departLane="best" departPos="random" departSpeed="0" from="-55029244#0" to="198876042#0"/>
  <flow id="motorcycle_-55029244#0_193253427#0_00084a9c" type="motorcycle" begin="0" end="3600" vehsPerHour="66.02" departLane="best" departPos="random" departSpeed="0" from="-55029244#0" to="193253427#0"/>
  <flow id="motorcycle_-55029244#0_198876043#2_00084a9c" type="motorcycle" begin="0" end="3600" vehsPerHour="57.74" departLane="best" departPos="random" departSpeed="0" from="-55029244#0" to="198876043#2"/>
  <flow id="motorcycle_-55029244#0_28231434_00084a9c" type="motorcycle" begin="0" end="3600" vehsPerHour="53.49" departLane="best" departPos="random" departSpeed="0" from="-55029244#0" to="28231434"/>
  <flow id="motorcycle_-55029244#0_23241821#0_00084a9c" type="motorcycle" begin="0" end="3600" vehsPerHour="46.17" departLane="best" departPos="random" departSpeed="0" from="-55029244#0" to="23241821#0"/>
  <flow id="car_34241530#0_198876042#0_00084a9c" type="car" begin="0" end="3600" vehsPerHour="27.10" departLane="best" departPos="random" departSpeed="0" from="34241530#0" to="198876042#0"/>
  <flow id="car_34241530#0_193253427#0_00084a9c" type="car" begin="0" end="3600" vehsPerHour="22.55" departLane="best" departPos="random" departSpeed="0" from="34241530#0" to="193253427#0"/>
  <flow id="car_34241530#0_198876043#2_00084a9c" type="car" begin="0" end="3600" vehsPerHour="21.19" departLane="best" departPos="random" departSpeed="0" from="34241530#0" to="198876043#2"/>
  <flow id="car_34241530#0_28231434_00084a9c" type="car" begin="0" end="3600" vehsPerHour="16.35" departLane="best" departPos="random" departSpeed="0" from="34241530#0" to="28231434"/>
  <flow id="car_34241530#0_23241821#0_00084a9c" type="car" begin="0" end="3600" vehsPerHour="12.99" departLane="best" departPos="random" departSpeed="0" from="34241530#0" to="23241821#0"/>
  <flow id="motorcycle_34241530#0_198876042#0_00084a9c" type="motorcycle" begin="0" end="3600" vehsPerHour="78.90" departLane="best" departPos="random" departSpeed="0" from="34241530#0" to="198876042#0"/>
  <flow id="motorcycle_34241530#0_193253427#0_00084a9c" type="motorcycle" begin="0" end="3600" vehsPerHour="69.29" departLane="best" departPos="random" departSpeed="0" from="34241530#0" to="193253427#0"/>
  <flow id="motorcycle_34241530#0_198876043#2_00084a9c" type="motorcycle" begin="0" end="3600" vehsPerHour="58.80" departLane="best" departPos="random" departSpeed="0" from="34241530#0" to="198876043#2"/>
  <flow id="motorcycle_34241530#0_28231434_00084a9c" type="motorcycle" begin="0" end="3600" vehsPerHour="53.80" departLane="best" departPos="random" departSpeed="0" from="34241530#0" to="28231434"/>
  <flow id="motorcycle_34241530#0_23241821#0_00084a9c" type="motorcycle" begin="0" end="3600" vehsPerHour="47.97" departLane="best" departPos="random" departSpeed="0" from="34241530#0" to="23241821#0"/>
  <flow id="truck_34241530#0_198876042#0_00084a9c" type="truck" begin="0" end="3600" vehsPerHour="11.38" departLane="best" departPos="random" departSpeed="0" from="34241530#0" to="198876042#0"/>
</routes>
