<routes>
<vType id="car" vClass="passenger" accel="2.6" decel="4.5" sigma="0.5" length="5.0" maxSpeed="13.9"/>
<vType id="motorcycle" vClass="motorcycle" accel="3.0" decel="5.0" sigma="0.5" length="2.0" maxSpeed="14.0"/>
<vType id="truck" vClass="truck" accel="1.2" decel="3.5" sigma="0.5" length="12.0" maxSpeed="10.0"/>

  <flow id="car_222682222#1_193253427#0_000f2d6f" type="car" begin="0" end="3600" vehsPerHour="62.54" departLane="best" departPos="random" departSpeed="0" from="222682222#1" to="193253427#0"/>
  <flow id="car_222682222#1_198876043#0_000f2d6f" type="car" begin="0" end="3600" vehsPerHour="52.26" departLane="best" departPos="random" departSpeed="0" from="222682222#1" to="198876043#0"/>
  <flow id="car_222682222#1_28231434_000f2d6f" type="car" begin="0" end="3600" vehsPerHour="52.67" departLane="best" departPos="random" departSpeed="0" from="222682222#1" to="28231434"/>
  <flow id="car_222682222#1_23241821#0_000f2d6f" type="car" begin="0" end="3600" vehsPerHour="40.82" departLane="best" departPos="random" departSpeed="0" from="222682222#1" to="23241821#0"/>
  <flow id="car_222682222#1_198876042#0_000f2d6f" type="car" begin="0" end="3600" vehsPerHour="33.08" departLane="best" departPos="random" departSpeed="0" from="222682222#1" to="198876042#0"/>
  <flow id="motorcycle_222682222#1_193253427#0_000f2d6f" type="motorcycle" begin="0" end="3600" vehsPerHour="167.93" departLane="best" departPos="random" departSpeed="0" from="222682222#1" to="193253427#0"/>
  <flow id="motorcycle_222682222#1_198876043#0_000f2d6f" type="motorcycle" begin="0" end="3600" vehsPerHour="151.38" departLane="best" departPos="random" departSpeed="0" from="222682222#1" to="198876043#0"/>
  <flow id="motorcycle_222682222#1_28231434_000f2d6f" type="motorcycle" begin="0" end="3600" vehsPerHour="136.83" departLane="best" departPos="random" departSpeed="0" from="222682222#1" to="28231434"/>
  <flow id="motorcycle_222682222#1_23241821#0_000f2d6f" type="motorcycle" begin="0" end="3600" vehsPerHour="116.34" departLane="best" departPos="random" departSpeed="0" from="222682222#1" to="23241821#0"/>
  <flow id="motorcycle_222682222#1_198876042#0_000f2d6f" type="motorcycle" begin="0" end="3600" vehsPerHour="101.78" departLane="best" departPos="random" departSpeed="0" from="222682222#1" to="198876042#0"/>
  <flow id="car_193253433#2_198876043#0_000f2d6f" type="car" begin="0" end="3600" vehsPerHour="39.00" departLane="best" departPos="random" departSpeed="0" from="193253433#2" to="198876043#0"/>
  <flow id="car_193253433#2_28231434_000f2d6f" type="car" begin="0" end="3600" vehsPerHour="33.40" departLane="best" departPos="random" departSpeed="0" from="193253433#2" to="28231434"/>
  <flow id="car_193253433#2_23241821#0_000f2d6f" type="car" begin="0" end="3600" vehsPerHour="34.32" departLane="best" departPos="random" departSpeed="0" from="193253433#2" to="23241821#0"/>
  <flow id="car_193253433#2_198876042#0_000f2d6f" type="car" begin="0" end="3600" vehsPerHour="26.29" departLane="best" departPos="random" departSpeed="0" from="193253433#2" to="198876042#0"/>
  <flow id="car_193253433#2_193253427#0_000f2d6f" type="car" begin="0" end="3600" vehsPerHour="22.85" departLane="best" departPos="random" departSpeed="0" from="193253433#2" to="193253427#0"/>
  <flow id="motorcycle_193253433#2_198876043#0_000f2d6f" type="motorcycle" begin="0" end="3600" vehsPerHour="118.64" departLane="best" departPos="random" departSpeed="0" from="193253433#2" to="198876043#0"/>
  <flow id="motorcycle_193253433#2_28231434_000f2d6f" type="motorcycle" begin="0" end="3600" vehsPerHour="99.10" departLane="best" departPos="random" departSpeed="0" from="193253433#2" to="28231434"/>
  <flow id="motorcycle_193253433#2_23241821#0_000f2d6f" type="motorcycle" begin="0" end="3600" vehsPerHour="90.85" departLane="best" departPos="random" departSpeed="0" from="193253433#2" to="23241821#0"/>
  <flow id="motorcycle_193253433#2_198876042#0_000f2d6f" type="motorcycle" begin="0" end="3600" vehsPerHour="84.65" departLane="best" departPos="random" departSpeed="0" from="193253433#2" to="198876042#0"/>
  <flow id="motorcycle_193253433#2_193253427#0_000f2d6f" type="motorcycle" begin="0" end="3600" vehsPerHour="67.41" departLane="best" departPos="random" departSpeed="0" from="193253433#2" to="193253427#0"/>
  <flow id="car_198876045#1_28231434_000f2d6f" type="car" begin="0" end="3600" vehsPerHour="33.52" departLane="best" departPos="random" departSpeed="0" from="198876045#1" to="28231434"/>
  <flow id="car_198876045#1_23241821#0_000f2d6f" type="car" begin="0" end="3600" vehsPerHour="29.21" departLane="best" departPos="random" departSpeed="0" from="198876045#1" to="23241821#0"/>
  <flow id="car_198876045#1_198876042#0_000f2d6f" type="car" begin="0" end="3600" vehsPerHour="26.76" departLane="best" departPos="random" departSpeed="0" from="198876045#1" to="198876042#0"/>
  <flow id="car_198876045#1_193253427#0_000f2d6f" type="car" begin="0" end="3600" vehsPerHour="24.04" departLane="best" departPos="random" departSpeed="0" from="198876045#1" to="193253427#0"/>
  <flow id="car_198876045#1_198876043#2_000f2d6f" type="car" begin="0" end="3600" vehsPerHour="21.05" departLane="best" departPos="random" departSpeed="0" from="198876045#1" to="198876043#2"/>
  <flow id="motorcycle_198876045#1_28231434_000f2d6f" type="motorcycle" begin="0" end="3600" vehsPerHour="97.35" departLane="best" departPos="random" departSpeed="0" from="198876045#1" to="28231434"/>
  <flow id="motorcycle_198876045#1_23241821#0_000f2d6f" type="motorcycle" begin="0" end="3600" vehsPerHour="91.38" departLane="best" departPos="random" departSpeed="0" from="198876045#1" to="23241821#0"/>
  <flow id="motorcycle_198876045#1_198876042#0_000f2d6f" type="motorcycle" begin="0" end="3600" vehsPerHour="80.95" departLane="best" departPos="random" departSpeed="0" from="198876045#1" to="198876042#0"/>
  <flow id="motorcycle_198876045#1_193253427#0_000f2d6f" type="motorcycle" begin="0" end="3600" vehsPerHour="70.57" departLane="best" departPos="random" departSpeed="0" from="198876045#1" to="193253427#0"/>
  <flow id="motorcycle_198876045#1_198876043#2_000f2d6f" type="motorcycle" begin="0" end="3600" vehsPerHour="70.76" departLane="best" departPos="random" departSpeed="0" from="198876045#1" to="198876043#2"/>
  <flow id="car_-28231434_23241821#0_000f2d6f" type="car" begin="0" end="3600" vehsPerHour="24.35" departLane="best" departPos="random" departSpeed="0" from="-28231434" to="23241821#0"/>
  <flow id="car_-28231434_198876042#0_000f2d6f" type="car" begin="0" end="3600" vehsPerHour="19.83" departLane="best" departPos="random" departSpeed="0" from="-28231434" to="198876042#0"/>
  <flow id="car_-28231434_193253427#0_000f2d6f" type="car" begin="0" end="3600" vehsPerHour="16.94" departLane="best" departPos="random" departSpeed="0" from="-28231434" to="193253427#0"/>
  <flow id="car_-28231434_198876043#2_000f2d6f" type="car" begin="0" end="3600" vehsPerHour="17.41" departLane="best" departPos="random" departSpeed="0" from="-28231434" to="198876043#2"/>
  <flow id="car_-28231434_28231434_000f2d6f" type="car" begin="0" end="3600" vehsPerHour="12.94" departLane="best" departPos="random" departSpeed="0" from="-28231434" to="28231434"/>
  <flow id="motorcycle_-28231434_23241821#0_000f2d6f" type="motorcycle" begin="0" end="3600" vehsPerHour="65.46" departLane="best" departPos="random" departSpeed="0" from="-28231434" to="23241821#0"/>
  <flow id="motorcycle_-28231434_198876042#0_000f2d6f" type="motorcycle" begin="0" end="3600" vehsPerHour="57.89" departLane="best" departPos="random" departSpeed="0" from="-28231434" to="198876042#0"/>
  <flow id="motorcycle_-28231434_193253427#0_000f2d6f" type="motorcycle" begin="0" end="3600" vehsPerHour="52.39" departLane="best" departPos="random" departSpeed="0" from="-28231434" to="193253427#0"/>
  <flow id="motorcycle_-28231434_198876043#2_000f2d6f" type="motorcycle" begin="0" end="3600" vehsPerHour="48.45" departLane="best" departPos="random" departSpeed="0" from="-28231434" to="198876043#2"/>
  <flow id="motorcycle_-28231434_28231434_000f2d6f" type="motorcycle" begin="0" end="3600" vehsPerHour="40.18" departLane="best" departPos="random" departSpeed="0" from="-28231434" to="28231434"/>
  <flow id="car_-55029244#0_198876042#0_000f2d6f" type="car" begin="0" end="3600" vehsPerHour="27.00" departLane="best" departPos="random" departSpeed="0" from="-55029244#0" to="198876042#0"/>
  <flow id="car_-55029244#0_193253427#0_000f2d6f" type="car" begin="0" end="3600" vehsPerHour="24.38" departLane="best" departPos="random" departSpeed="0" from="-55029244#0" to="193253427#0"/>
  <flow id="car_-55029244#0_198876043#2_000f2d6f" type="car" begin="0" end="3600" vehsPerHour="20.87" departLane="best" departPos="random" departSpeed="0" from="-55029244#0" to="198876043#2"/>
  <flow id="car_-55029244#0_28231434_000f2d6f" type="car" begin="0" end="3600" vehsPerHour="16.25" departLane="best" departPos="random" departSpeed="0" from="-55029244#0" to="28231434"/>
  <flow id="car_-55029244#0_23241821#0_000f2d6f" type="car" begin="0" end="3600" vehsPerHour="12.91" departLane="best" departPos="random" departSpeed="0" from="-55029244#0" to="23241821#0"/>
  <flow id="motorcycle_-55029244#0_198876042#0_000f2d6f" type="motorcycle" begin="0" end="3600" vehsPerHour="80.30" departLane="best" departPos="random" departSpeed="0" from="-55029244#0" to="198876042#0"/>
  <flow id="motorcycle_-55029244#0_193253427#0_000f2d6f" type="motorcycle" begin="0" end="3600" vehsPerHour="69.82" departLane="best" departPos="random" departSpeed="0" from="-55029244#0" to="193253427#0"/>
  <flow id="motorcycle_-55029244#0_198876043#2_000f2d6f" type="motorcycle" begin="0" end="3600" vehsPerHour="59.87" departLane="best" departPos="random" departSpeed="0" from="-55029244#0" to="198876043#2"/>
  <flow id="motorcycle_-55029244#0_28231434_000f2d6f" type="motorcycle" begin="0" end="3600" vehsPerHour="56.19" departLane="best" departPos="random" departSpeed="0" from="-55029244#0" to="28231434"/>
  <flow id="motorcycle_-55029244#0_23241821#0_000f2d6f" type="motorcycle" begin="0" end="3600" vehsPerHour="46.80" departLane="best" departPos="random" departSpeed="0" from="-55029244#0" to="23241821#0"/>
  <flow id="car_34241530#0_198876042#0_000f2d6f" type="car" begin="0" end="3600" vehsPerHour="26.73" departLane="best" departPos="random" departSpeed="0" from="34241530#0" to="198876042#0"/>
  <flow id="car_34241530#0_193253427#0_000f2d6f" type="car" begin="0" end="3600" vehsPerHour="24.13" departLane="best" departPos="random" departSpeed="0" from="34241530#0" to="193253427#0"/>
  <flow id="car_34241530#0_198876043#2_000f2d6f" type="car" begin="0" end="3600" vehsPerHour="19.76" departLane="best" departPos="random" departSpeed="0" from="34241530#0" to="198876043#2"/>
  <flow id="car_34241530#0_28231434_000f2d6f" type="car" begin="0" end="3600" vehsPerHour="17.34" departLane="best" departPos="random" departSpeed="0" from="34241530#0" to="28231434"/>
  <flow id="car_34241530#0_23241821#0_000f2d6f" type="car" begin="0" end="3600" vehsPerHour="13.29" departLane="best" departPos="random" departSpeed="0" from="34241530#0" to="23241821#0"/>
  <flow id="motorcycle_34241530#0_198876042#0_000f2d6f" type="motorcycle" begin="0" end="3600" vehsPerHour="77.36" departLane="best" departPos="random" departSpeed="0" from="34241530#0" to="198876042#0"/>
  <flow id="motorcycle_34241530#0_193253427#0_000f2d6f" type="motorcycle" begin="0" end="3600" vehsPerHour="67.00" departLane="best" departPos="random" departSpeed="0" from="34241530#0" to="193253427#0"/>
  <flow id="motorcycle_34241530#0_198876043#2_000f2d6f" type="motorcycle" begin="0" end="3600" vehsPerHour="61.54" departLane="best" departPos="random" departSpeed="0" from="34241530#0" to="198876043#2"/>
  <flow id="motorcycle_34241530#0_28231434_000f2d6f" type="motorcycle" begin="0" end="3600" vehsPerHour="55.43" departLane="best" departPos="random" departSpeed="0" from="34241530#0" to="28231434"/>
  <flow id="motorcycle_34241530#0_23241821#0_000f2d6f" type="motorcycle" begin="0" end="3600" vehsPerHour="45.33" departLane="best" departPos="random" departSpeed="0" from="34241530#0" to="23241821#0"/>
  <flow id="truck_34241530#0_198876042#0_000f2d6f" type="truck" begin="0" end="3600" vehsPerHour="11.61" departLane="best" departPos="random" departSpeed="0" from="34241530#0" to="198876042#0"/>
</routes>
