<routes>
<vType id="car" vClass="passenger" accel="2.6" decel="4.5" sigma="0.5" length="5.0" maxSpeed="13.9"/>
<vType id="motorcycle" vClass="motorcycle" accel="3.0" decel="5.0" sigma="0.5" length="2.0" maxSpeed="14.0"/>
<vType id="truck" vClass="truck" accel="1.2" decel="3.5" sigma="0.5" length="12.0" maxSpeed="10.0"/>

  <flow id="car_222682222#1_193253427#0_000cd726" type="car" begin="0" end="3600" vehsPerHour="58.05" departLane="best" departPos="random" departSpeed="0" from="222682222#1" to="193253427#0"/>
  <flow id="car_222682222#1_198876043#0_000cd726" type="car" begin="0" end="3600" vehsPerHour="51.56" departLane="best" departPos="random" departSpeed="0" from="222682222#1" to="198876043#0"/>
  <flow id="car_222682222#1_28231434_000cd726" type="car" begin="0" end="3600" vehsPerHour="48.33" departLane="best" departPos="random" departSpeed="0" from="222682222#1" to="28231434"/>
  <flow id="car_222682222#1_23241821#0_000cd726" type="car" begin="0" end="3600" vehsPerHour="38.76" departLane="best" departPos="random" departSpeed="0" from="222682222#1" to="23241821#0"/>
  <flow id="car_222682222#1_198876042#0_000cd726" type="car" begin="0" end="3600" vehsPerHour="32.74" departLane="best" departPos="random" departSpeed="0" from="222682222#1" to="198876042#0"/>
  <flow id="motorcycle_222682222#1_193253427#0_000cd726" type="motorcycle" begin="0" end="3600" vehsPerHour="169.55" departLane="best" departPos="random" departSpeed="0" from="222682222#1" to="193253427#0"/>
  <flow id="motorcycle_222682222#1_198876043#0_000cd726" type="motorcycle" begin="0" end="3600" vehsPerHour="147.42" departLane="best" departPos="random" departSpeed="0" from="222682222#1" to="198876043#0"/>
  <flow id="motorcycle_222682222#1_28231434_000cd726" type="motorcycle" begin="0" end="3600" vehsPerHour="144.71" departLane="best" departPos="random" departSpeed="0" from="222682222#1" to="28231434"/>
  <flow id="motorcycle_222682222#1_23241821#0_000cd726" type="motorcycle" begin="0" end="3600" vehsPerHour="117.82" departLane="best" departPos="random" departSpeed="0" from="222682222#1" to="23241821#0"/>
  <flow id="motorcycle_222682222#1_198876042#0_000cd726" type="motorcycle" begin="0" end="3600" vehsPerHour="99.48" departLane="best" departPos="random" departSpeed="0" from="222682222#1" to="198876042#0"/>
  <flow id="car_193253433#2_198876043#0_000cd726" type="car" begin="0" end="3600" vehsPerHour="41.09" departLane="best" departPos="random" departSpeed="0" from="193253433#2" to="198876043#0"/>
  <flow id="car_193253433#2_28231434_000cd726" type="car" begin="0" end="3600" vehsPerHour="35.36" departLane="best" departPos="random" departSpeed="0" from="193253433#2" to="28231434"/>
  <flow id="car_193253433#2_23241821#0_000cd726" type="car" begin="0" end="3600" vehsPerHour="34.45" departLane="best" departPos="random" departSpeed="0" from="193253433#2" to="23241821#0"/>
  <flow id="car_193253433#2_198876042#0_000cd726" type="car" begin="0" end="3600" vehsPerHour="27.20" departLane="best" departPos="random" departSpeed="0" from="193253433#2" to="198876042#0"/>
  <flow id="car_193253433#2_193253427#0_000cd726" type="car" begin="0" end="3600" vehsPerHour="24.25" departLane="best" departPos="random" departSpeed="0" from="193253433#2" to="193253427#0"/>
  <flow id="motorcycle_193253433#2_198876043#0_000cd726" type="motorcycle" begin="0" end="3600" vehsPerHour="109.60" departLane="best" departPos="random" departSpeed="0" from="193253433#2" to="198876043#0"/>
  <flow id="motorcycle_193253433#2_28231434_000cd726" type="motorcycle" begin="0" end="3600" vehsPerHour="102.57" departLane="best" departPos="random" departSpeed="0" from="193253433#2" to="28231434"/>
  <flow id="motorcycle_193253433#2_23241821#0_000cd726" type="motorcycle" begin="0" end="3600" vehsPerHour="97.33" departLane="best" departPos="random" departSpeed="0" from="193253433#2" to="23241821#0"/>
  <flow id="motorcycle_193253433#2_198876042#0_000cd726" type="motorcycle" begin="0" end="3600" vehsPerHour="77.14" departLane="best" departPos="random" departSpeed="0" from="193253433#2" to="198876042#0"/>
  <flow id="motorcycle_193253433#2_193253427#0_000cd726" type="motorcycle" begin="0" end="3600" vehsPerHour="66.35" departLane="best" departPos="random" departSpeed="0" from="193253433#2" to="193253427#0"/>
  <flow id="car_198876045#1_28231434_000cd726" type="car" begin="0" end="3600" vehsPerHour="33.45" departLane="best" departPos="random" departSpeed="0" from="198876045#1" to="28231434"/>
  <flow id="car_198876045#1_23241821#0_000cd726" type="car" begin="0" end="3600" vehsPerHour="31.10" departLane="best" departPos="random" departSpeed="0" from="198876045#1" to="23241821#0"/>
  <flow id="car_198876045#1_198876042#0_000cd726" type="car" begin="0" end="3600" vehsPerHour="27.31" departLane="best" departPos="random" departSpeed="0" from="198876045#1" to="198876042#0"/>
  <flow id="car_198876045#1_193253427#0_000cd726" type="car" begin="0" end="3600" vehsPerHour="23.78" departLane="best" departPos="random" departSpeed="0" from="198876045#1" to="193253427#0"/>
  <flow id="car_198876045#1_198876043#2_000cd726" type="car" begin="0" end="3600" vehsPerHour="19.85" departLane="best" departPos="random" departSpeed="0" from="198876045#1" to="198876043#2"/>
  <flow id="motorcycle_198876045#1_28231434_000cd726" type="motorcycle" begin="0" end="3600" vehsPerHour="105.45" departLane="best" departPos="random" departSpeed="0" from="198876045#1" to="28231434"/>
  <flow id="motorcycle_198876045#1_23241821#0_000cd726" type="motorcycle" begin="0" end="3600" vehsPerHour="88.80" departLane="best" departPos="random" departSpeed="0" from="198876045#1" to="23241821#0"/>
  <flow id="motorcycle_198876045#1_198876042#0_000cd726" type="motorcycle" begin="0" end="3600" vehsPerHour="80.20" departLane="best" departPos="random" departSpeed="0" from="198876045#1" to="198876042#0"/>
  <flow id="motorcycle_198876045#1_193253427#0_000cd726" type="motorcycle" begin="0" end="3600" vehsPerHour="75.87" departLane="best" departPos="random" departSpeed="0" from="198876045#1" to="193253427#0"/>
  <flow id="motorcycle_198876045#1_198876043#2_000cd726" type="motorcycle" begin="0" end="3600" vehsPerHour="69.38" departLane="best" departPos="random" departSpeed="0" from="198876045#1" to="198876043#2"/>
  <flow id="car_-28231434_23241821#0_000cd726" type="car" begin="0" end="3600" vehsPerHour="23.00" departLane="best" departPos="random" departSpeed="0" from="-28231434" to="23241821#0"/>
  <flow id="car_-28231434_198876042#0_000cd726" type="car" begin="0" end="3600" vehsPerHour="20.62" departLane="best" departPos="random" departSpeed="0" from="-28231434" to="198876042#0"/>
  <flow id="car_-28231434_193253427#0_000cd726" type="car" begin="0" end="3600" vehsPerHour="17.06" departLane="best" departPos="random" departSpeed="0" from="-28231434" to="193253427#0"/>
  <flow id="car_-28231434_198876043#2_000cd726" type="car" begin="0" end="3600" vehsPerHour="16.98" departLane="best" departPos="random" departSpeed="0" from="-28231434" to="198876043#2"/>
  <flow id="car_-28231434_28231434_000cd726" type="car" begin="0" end="3600" vehsPerHour="13.18" departLane="best" departPos="random" departSpeed="0" from="-28231434" to="28231434"/>
  <flow id="motorcycle_-28231434_23241821#0_000cd726" type="motorcycle" begin="0" end="3600" vehsPerHour="67.06" departLane="best" departPos="random" departSpeed="0" from="-28231434" to="23241821#0"/>
  <flow id="motorcycle_-28231434_198876042#0_000cd726" type="motorcycle" begin="0" end="3600" vehsPerHour="61.37" departLane="best" departPos="random" departSpeed="0" from="-28231434" to="198876042#0"/>
  <flow id="motorcycle_-28231434_193253427#0_000cd726" type="motorcycle" begin="0" end="3600" vehsPerHour="53.17" departLane="best" departPos="random" departSpeed="0" from="-28231434" to="193253427#0"/>
  <flow id="motorcycle_-28231434_198876043#2_000cd726" type="motorcycle" begin="0" end="3600" vehsPerHour="48.27" departLane="best" departPos="random" departSpeed="0" from="-28231434" to="198876043#2"/>
  <flow id="motorcycle_-28231434_28231434_000cd726" type="motorcycle" begin="0" end="3600" vehsPerHour="41.35" departLane="best" departPos="random" departSpeed="0" from="-28231434" to="28231434"/>
  <flow id="car_-55029244#0_198876042#0_000cd726" type="car" begin="0" end="3600" vehsPerHour="27.88" departLane="best" departPos="random" departSpeed="0" from="-55029244#0" to="198876042#0"/>
  <flow id="car_-55029244#0_193253427#0_000cd726" type="car" begin="0" end="3600" vehsPerHour="23.44" departLane="best" departPos="random" departSpeed="0" from="-55029244#0" to="193253427#0"/>
  <flow id="car_-55029244#0_198876043#2_000cd726" type="car" begin="0" end="3600" vehsPerHour="19.93" departLane="best" departPos="random" departSpeed="0" from="-55029244#0" to="198876043#2"/>
  <flow id="car_-55029244#0_28231434_000cd726" type="car" begin="0" end="3600" vehsPerHour="17.61" departLane="best" departPos="random" departSpeed="0" from="-55029244#0" to="28231434"/>
  <flow id="car_-55029244#0_23241821#0_000cd726" type="car" begin="0" end="3600" vehsPerHour="13.17" departLane="best" departPos="random" departSpeed="0" from="-55029244#0" to="23241821#0"/>
  <flow id="motorcycle_-55029244#0_198876042#0_000cd726" type="motorcycle" begin="0" end="3600" vehsPerHour="84.39" departLane="best" departPos="random" departSpeed="0" from="-55029244#0" to="198876042#0"/>
  <flow id="motorcycle_-55029244#0_193253427#0_000cd726" type="motorcycle" begin="0" end="3600" vehsPerHour="66.73" departLane="best" departPos="random" departSpeed="0" from="-55029244#0" to="193253427#0"/>
  <flow id="motorcycle_-55029244#0_198876043#2_000cd726" type="motorcycle" begin="0" end="3600" vehsPerHour="58.84" departLane="best" departPos="random" departSpeed="0" from="-55029244#0" to="198876043#2"/>
  <flow id="motorcycle_-55029244#0_28231434_000cd726" type="motorcycle" begin="0" end="3600" vehsPerHour="52.07" departLane="best" departPos="random" departSpeed="0" from="-55029244#0" to="28231434"/>
  <flow id="motorcycle_-55029244#0_23241821#0_000cd726" type="motorcycle" begin="0" end="3600" vehsPerHour="46.92" departLane="best" departPos="random" departSpeed="0" from="-55029244#0" to="23241821#0"/>
  <flow id="car_34241530#0_198876042#0_000cd726" type="car" begin="0" end="3600" vehsPerHour="25.94" departLane="best" departPos="random" departSpeed="0" from="34241530#0" to="198876042#0"/>
  <flow id="car_34241530#0_193253427#0_000cd726" type="car" begin="0" end="3600" vehsPerHour="24.21" departLane="best" departPos="random" departSpeed="0" from="34241530#0" to="193253427#0"/>
  <flow id="car_34241530#0_198876043#2_000cd726" type="car" begin="0" end="3600" vehsPerHour="20.22" departLane="best" departPos="random" departSpeed="0" from="34241530#0" to="198876043#2"/>
  <flow id="car_34241530#0_28231434_000cd726" type="car" begin="0" end="3600" vehsPerHour="16.54" departLane="best" departPos="random" departSpeed="0" from="34241530#0" to="28231434"/>
  <flow id="car_34241530#0_23241821#0_000cd726" type="car" begin="0" end="3600" vehsPerHour="13.37" departLane="best" departPos="random" departSpeed="0" from="34241530#0" to="23241821#0"/>
  <flow id="motorcycle_34241530#0_198876042#0_000cd726" type="motorcycle" begin="0" end="3600" vehsPerHour="78.13" departLane="best" departPos="random" departSpeed="0" from="34241530#0" to="198876042#0"/>
  <flow id="motorcycle_34241530#0_193253427#0_000cd726" type="motorcycle" begin="0" end="3600" vehsPerHour="70.35" departLane="best" departPos="random" departSpeed="0" from="34241530#0" to="193253427#0"/>
  <flow id="motorcycle_34241530#0_198876043#2_000cd726" type="motorcycle" begin="0" end="3600" vehsPerHour="60.73" departLane="best" departPos="random" departSpeed="0" from="34241530#0" to="198876043#2"/>
  <flow id="motorcycle_34241530#0_28231434_000cd726" type="motorcycle" begin="0" end="3600" vehsPerHour="52.94" departLane="best" departPos="random" departSpeed="0" from="34241530#0" to="28231434"/>
  <flow id="motorcycle_34241530#0_23241821#0_000cd726" type="motorcycle" begin="0" end="3600" vehsPerHour="49.11" departLane="best" departPos="random" departSpeed="0" from="34241530#0" to="23241821#0"/>
  <flow id="truck_34241530#0_198876042#0_000cd726" type="truck" begin="0" end="3600" vehsPerHour="12.22" departLane="best" departPos="random" departSpeed="0" from="34241530#0" to="198876042#0"/>
</routes>
