<routes>
<vType id="car" vClass="passenger" accel="2.6" decel="4.5" sigma="0.5" length="5.0" maxSpeed="13.9"/>
<vType id="motorcycle" vClass="motorcycle" accel="3.0" decel="5.0" sigma="0.5" length="2.0" maxSpeed="14.0"/>
<vType id="truck" vClass="truck" accel="1.2" decel="3.5" sigma="0.5" length="12.0" maxSpeed="10.0"/>

  <flow id="car_222682222#1_193253427#0_000770ce" type="car" begin="0" end="3600" vehsPerHour="58.92" departLane="best" departPos="random" departSpeed="0" from="222682222#1" to="193253427#0"/>
  <flow id="car_222682222#1_198876043#0_000770ce" type="car" begin="0" end="3600" vehsPerHour="49.18" departLane="best" departPos="random" departSpeed="0" from="222682222#1" to="198876043#0"/>
  <flow id="car_222682222#1_28231434_000770ce" type="car" begin="0" end="3600" vehsPerHour="50.61" departLane="best" departPos="random" departSpeed="0" from="222682222#1" to="28231434"/>
  <flow id="car_222682222#1_23241821#0_000770ce" type="car" begin="0" end="3600" vehsPerHour="42.16" departLane="best" departPos="random" departSpeed="0" from="222682222#1" to="23241821#0"/>
  <flow id="car_222682222#1_198876042#0_000770ce" type="car" begin="0" end="3600" vehsPerHour="35.13" departLane="best" departPos="random" departSpeed="0" from="222682222#1" to="198876042#0"/>
  <flow id="motorcycle_222682222#1_193253427#0_000770ce" type="motorcycle" begin="0" end="3600" vehsPerHour="172.34" departLane="best" departPos="random" departSpeed="0" from="222682222#1" to="193253427#0"/>
  <flow id="motorcycle_222682222#1_198876043#0_000770ce" type="motorcycle" begin="0" end="3600" vehsPerHour="150.29" departLane="best" departPos="random" departSpeed="0" from="222682222#1" to="198876043#0"/>
  <flow id="motorcycle_222682222#1_28231434_000770ce" type="motorcycle" begin="0" end="3600" vehsPerHour="144.78" departLane="best" departPos="random" departSpeed="0" from="222682222#1" to="28231434"/>
  <flow id="motorcycle_222682222#1_23241821#0_000770ce" type="motorcycle" begin="0" end="3600" vehsPerHour="118.35" departLane="best" departPos="random" departSpeed="0" from="222682222#1" to="23241821#0"/>
  <flow id="motorcycle_222682222#1_198876042#0_000770ce" type="motorcycle" begin="0" end="3600" vehsPerHour="105.03" departLane="best" departPos="random" departSpeed="0" from="222682222#1" to="198876042#0"/>
  <flow id="car_193253433#2_198876043#0_000770ce" type="car" begin="0" end="3600" vehsPerHour="41.87" departLane="best" departPos="random" departSpeed="0" from="193253433#2" to="198876043#0"/>
  <flow id="car_193253433#2_28231434_000770ce" type="car" begin="0" end="3600" vehsPerHour="32.29" departLane="best" departPos="random" departSpeed="0" from="193253433#2" to="28231434"/>
  <flow id="car_193253433#2_23241821#0_000770ce" type="car" begin="0" end="3600" vehsPerHour="32.99" departLane="best" departPos="random" departSpeed="0" from="193253433#2" to="23241821#0"/>
  <flow id="car_193253433#2_198876042#0_000770ce" type="car" begin="0" end="3600" vehsPerHour="27.30" departLane="best" departPos="random" departSpeed="0" from="193253433#2" to="198876042#0"/>
  <flow id="car_193253433#2_193253427#0_000770ce" type="car" begin="0" end="3600" vehsPerHour="24.11" departLane="best" departPos="random" departSpeed="0" from="193253433#2" to="193253427#0"/>
  <flow id="motorcycle_193253433#2_198876043#0_000770ce" type="motorcycle" begin="0" end="3600" vehsPerHour="117.79" departLane="best" departPos="random" departSpeed="0" from="193253433#2" to="198876043#0"/>
  <flow id="motorcycle_193253433#2_28231434_000770ce" type="motorcycle" begin="0" end="3600" vehsPerHour="97.83" departLane="best" departPos="random" departSpeed="0" from="193253433#2" to="28231434"/>
  <flow id="motorcycle_193253433#2_23241821#0_000770ce" type="motorcycle" begin="0" end="3600" vehsPerHour="98.25" departLane="best" departPos="random" departSpeed="0" from="193253433#2" to="23241821#0"/>
  <flow id="motorcycle_193253433#2_198876042#0_000770ce" type="motorcycle" begin="0" end="3600" vehsPerHour="80.88" departLane="best" departPos="random" departSpeed="0" from="193253433#2" to="198876042#0"/>
  <flow id="motorcycle_193253433#2_193253427#0_000770ce" type="motorcycle" begin="0" end="3600" vehsPerHour="66.79" departLane="best" departPos="random" departSpeed="0" from="193253433#2" to="193253427#0"/>
  <flow id="car_198876045#1_28231434_000770ce" type="car" begin="0" end="3600" vehsPerHour="32.12" departLane="best" departPos="random" departSpeed="0" from="198876045#1" to="28231434"/>
  <flow id="car_198876045#1_23241821#0_000770ce" type="car" begin="0" end="3600" vehsPerHour="31.84" departLane="best" departPos="random" departSpeed="0" from="198876045#1" to="23241821#0"/>
  <flow id="car_198876045#1_198876042#0_000770ce" type="car" begin="0" end="3600" vehsPerHour="25.79" departLane="best" departPos="random" departSpeed="0" from="198876045#1" to="198876042#0"/>
  <flow id="car_198876045#1_193253427#0_000770ce" type="car" begin="0" end="3600" vehsPerHour="23.28" departLane="best" departPos="random" departSpeed="0" from="198876045#1" to="193253427#0"/>
  <flow id="car_198876045#1_198876043#2_000770ce" type="car" begin="0" end="3600" vehsPerHour="19.32" departLane="best" departPos="random" departSpeed="0" from="198876045#1" to="198876043#2"/>
  <flow id="motorcycle_198876045#1_28231434_000770ce" type="motorcycle" begin="0" end="3600" vehsPerHour="104.36" departLane="best" departPos="random" departSpeed="0" from="198876045#1" to="28231434"/>
  <flow id="motorcycle_198876045#1_23241821#0_000770ce" type="motorcycle" begin="0" end="3600" vehsPerHour="90.02" departLane="best" departPos="random" departSpeed="0" from="198876045#1" to="23241821#0"/>
  <flow id="motorcycle_198876045#1_198876042#0_000770ce" type="motorcycle" begin="0" end="3600" vehsPerHour="76.85" departLane="best" departPos="random" departSpeed="0" from="198876045#1" to="198876042#0"/>
  <flow id="motorcycle_198876045#1_193253427#0_000770ce" type="motorcycle" begin="0" end="3600" vehsPerHour="75.43" departLane="best" departPos="random" departSpeed="0" from="198876045#1" to="193253427#0"/>
  <flow id="motorcycle_198876045#1_198876043#2_000770ce" type="motorcycle" begin="0" end="3600" vehsPerHour="67.87" departLane="best" departPos="random" departSpeed="0" from="198876045#1" to="198876043#2"/>
  <flow id="car_-28231434_23241821#0_000770ce" type="car" begin="0" end="3600" vehsPerHour="23.71" departLane="best" departPos="random" departSpeed="0" from="-28231434" to="23241821#0"/>
  <flow id="car_-28231434_198876042#0_000770ce" type="car" begin="0" end="3600" vehsPerHour="19.42" departLane="best" departPos="random" departSpeed="0" from="-28231434" to="198876042#0"/>
  <flow id="car_-28231434_193253427#0_000770ce" type="car" begin="0" end="3600" vehsPerHour="17.43" departLane="best" departPos="random" departSpeed="0" from="-28231434" to="193253427#0"/>
  <flow id="car_-28231434_198876043#2_000770ce" type="car" begin="0" end="3600" vehsPerHour="16.06" departLane="best" departPos="random" departSpeed="0" from="-28231434" to="198876043#2"/>
  <flow id="car_-28231434_28231434_000770ce" type="car" begin="0" end="3600" vehsPerHour="13.65" departLane="best" departPos="random" departSpeed="0" from="-28231434" to="28231434"/>
  <flow id="motorcycle_-28231434_23241821#0_000770ce" type="motorcycle" begin="0" end="3600" vehsPerHour="67.65" departLane="best" departPos="random" departSpeed="0" from="-28231434" to="23241821#0"/>
  <flow id="motorcycle_-28231434_198876042#0_000770ce" type="motorcycle" begin="0" end="3600" vehsPerHour="63.33" departLane="best" departPos="random" departSpeed="0" from="-28231434" to="198876042#0"/>
  <flow id="motorcycle_-28231434_193253427#0_000770ce" type="motorcycle" begin="0" end="3600" vehsPerHour="55.46" departLane="best" departPos="random" departSpeed="0" from="-28231434" to="193253427#0"/>
  <flow id="motorcycle_-28231434_198876043#2_000770ce" type="motorcycle" begin="0" end="3600" vehsPerHour="49.16" departLane="best" departPos="random" departSpeed="0" from="-28231434" to="198876043#2"/>
  <flow id="motorcycle_-28231434_28231434_000770ce" type="motorcycle" begin="0" end="3600" vehsPerHour="40.78" departLane="best" departPos="random" departSpeed="0" from="-28231434" to="28231434"/>
  <flow id="car_-55029244#0_198876042#0_000770ce" type="car" begin="0" end="3600" vehsPerHour="26.01" departLane="best" departPos="random" departSpeed="0" from="-55029244#0" to="198876042#0"/>
  <flow id="car_-55029244#0_193253427#0_000770ce" type="car" begin="0" end="3600" vehsPerHour="22.49" departLane="best" departPos="random" departSpeed="0" from="-55029244#0" to="193253427#0"/>
  <flow id="car_-55029244#0_198876043#2_000770ce" type="car" begin="0" end="3600" vehsPerHour="20.61" departLane="best" departPos="random" departSpeed="0" from="-55029244#0" to="198876043#2"/>
  <flow id="car_-55029244#0_28231434_000770ce" type="car" begin="0" end="3600" vehsPerHour="17.12" departLane="best" departPos="random" departSpeed="0" from="-55029244#0" to="28231434"/>
  <flow id="car_-55029244#0_23241821#0_000770ce" type="car" begin="0" end="3600" vehsPerHour="13.49" departLane="best" departPos="random" departSpeed="0" from="-55029244#0" to="23241821#0"/>
  <flow id="motorcycle_-55029244#0_198876042#0_000770ce" type="motorcycle" begin="0" end="3600" vehsPerHour="83.61" departLane="best" departPos="random" departSpeed="0" from="-55029244#0" to="198876042#0"/>
  <flow id="motorcycle_-55029244#0_193253427#0_000770ce" type="motorcycle" begin="0" end="3600" vehsPerHour="65.76" departLane="best" departPos="random" departSpeed="0" from="-55029244#0" to="193253427#0"/>
  <flow id="motorcycle_-55029244#0_198876043#2_000770ce" type="motorcycle" begin="0" end="3600" vehsPerHour="62.83" departLane="best" departPos="random" departSpeed="0" from="-55029244#0" to="198876043#2"/>
  <flow id="motorcycle_-55029244#0_28231434_000770ce" type="motorcycle" begin="0" end="3600" vehsPerHour="53.43" departLane="best" departPos="random" departSpeed="0" from="-55029244#0" to="28231434"/>
  <flow id="motorcycle_-55029244#0_23241821#0_000770ce" type="motorcycle" begin="0" end="3600" vehsPerHour="46.21" departLane="best" departPos="random" departSpeed="0" from="-55029244#0" to="23241821#0"/>
  <flow id="car_34241530#0_198876042#0_000770ce" type="car" begin="0" end="3600" vehsPerHour="27.75" departLane="best" departPos="random" departSpeed="0" from="34241530#0" to="198876042#0"/>
  <flow id="car_34241530#0_193253427#0_000770ce" type="car" begin="0" end="3600" vehsPerHour="23.22" departLane="best" departPos="random" departSpeed="0" from="34241530#0" to="193253427#0"/>
  <flow id="car_34241530#0_198876043#2_000770ce" type="car" begin="0" end="3600" vehsPerHour="19.44" departLane="best" departPos="random" departSpeed="0" from="34241530#0" to="198876043#2"/>
  <flow id="car_34241530#0_28231434_000770ce" type="car" begin="0" end="3600" vehsPerHour="16.31" departLane="best" departPos="random" departSpeed="0" from="34241530#0" to="28231434"/>
  <flow id="car_34241530#0_23241821#0_000770ce" type="car" begin="0" end="3600" vehsPerHour="13.76" departLane="best" departPos="random" departSpeed="0" from="34241530#0" to="23241821#0"/>
  <flow id="motorcycle_34241530#0_198876042#0_000770ce" type="motorcycle" begin="0" end="3600" vehsPerHour="77.60" departLane="best" departPos="random" departSpeed="0" from="34241530#0" to="198876042#0"/>
  <flow id="motorcycle_34241530#0_193253427#0_000770ce" type="motorcycle" begin="0" end="3600" vehsPerHour="66.79" departLane="best" departPos="random" departSpeed="0" from="34241530#0" to="193253427#0"/>
  <flow id="motorcycle_34241530#0_198876043#2_000770ce" type="motorcycle" begin="0" end="3600" vehsPerHour="60.12" departLane="best" departPos="random" departSpeed="0" from="34241530#0" to="198876043#2"/>
  <flow id="motorcycle_34241530#0_28231434_000770ce" type="motorcycle" begin="0" end="3600" vehsPerHour="51.43" departLane="best" departPos="random" departSpeed="0" from="34241530#0" to="28231434"/>
  <flow id="motorcycle_34241530#0_23241821#0_000770ce" type="motorcycle" begin="0" end="3600" vehsPerHour="46.93" departLane="best" departPos="random" departSpeed="0" from="34241530#0" to="23241821#0"/>
  <flow id="truck_34241530#0_198876042#0_000770ce" type="truck" begin="0" end="3600" vehsPerHour="11.45" departLane="best" departPos="random" departSpeed="0" from="34241530#0" to="198876042#0"/>
</routes>
