<routes>
<vType id="car" vClass="passenger" accel="2.6" decel="4.5" sigma="0.5" length="5.0" maxSpeed="13.9"/>
<vType id="motorcycle" vClass="motorcycle" accel="3.0" decel="5.0" sigma="0.5" length="2.0" maxSpeed="14.0"/>
<vType id="truck" vClass="truck" accel="1.2" decel="3.5" sigma="0.5" length="12.0" maxSpeed="10.0"/>

  <flow id="car_222682222#1_193253427#0_0008703c" type="car" begin="0" end="3600" vehsPerHour="61.04" departLane="best" departPos="random" departSpeed="0" from="222682222#1" to="193253427#0"/>
  <flow id="car_222682222#1_198876043#0_0008703c" type="car" begin="0" end="3600" vehsPerHour="51.67" departLane="best" departPos="random" departSpeed="0" from="222682222#1" to="198876043#0"/>
  <flow id="car_222682222#1_28231434_0008703c" type="car" begin="0" end="3600" vehsPerHour="51.66" departLane="best" departPos="random" departSpeed="0" from="222682222#1" to="28231434"/>
  <flow id="car_222682222#1_23241821#0_0008703c" type="car" begin="0" end="3600" vehsPerHour="38.80" departLane="best" departPos="random" departSpeed="0" from="222682222#1" to="23241821#0"/>
  <flow id="car_222682222#1_198876042#0_0008703c" type="car" begin="0" end="3600" vehsPerHour="33.90" departLane="best" departPos="random" departSpeed="0" from="222682222#1" to="198876042#0"/>
  <flow id="motorcycle_222682222#1_193253427#0_0008703c" type="motorcycle" begin="0" end="3600" vehsPerHour="177.47" departLane="best" departPos="random" departSpeed="0" from="222682222#1" to="193253427#0"/>
  <flow id="motorcycle_222682222#1_198876043#0_0008703c" type="motorcycle" begin="0" end="3600" vehsPerHour="157.13" departLane="best" departPos="random" departSpeed="0" from="222682222#1" to="198876043#0"/>
  <flow id="motorcycle_222682222#1_28231434_0008703c" type="motorcycle" begin="0" end="3600" vehsPerHour="135.35" departLane="best" departPos="random" departSpeed="0" from="222682222#1" to="28231434"/>
  <flow id="motorcycle_222682222#1_23241821#0_0008703c" type="motorcycle" begin="0" end="3600" vehsPerHour="115.37" departLane="best" departPos="random" departSpeed="0" from="222682222#1" to="23241821#0"/>
  <flow id="motorcycle_222682222#1_198876042#0_0008703c" type="motorcycle" begin="0" end="3600" vehsPerHour="99.02" departLane="best" departPos="random" departSpeed="0" from="222682222#1" to="198876042#0"/>
  <flow id="car_193253433#2_198876043#0_0008703c" type="car" begin="0" end="3600" vehsPerHour="38.76" departLane="best" departPos="random" departSpeed="0" from="193253433#2" to="198876043#0"/>
  <flow id="car_193253433#2_28231434_0008703c" type="car" begin="0" end="3600" vehsPerHour="33.67" departLane="best" departPos="random" departSpeed="0" from="193253433#2" to="28231434"/>
  <flow id="car_193253433#2_23241821#0_0008703c" type="car" begin="0" end="3600" vehsPerHour="32.48" departLane="best" departPos="random" departSpeed="0" from="193253433#2" to="23241821#0"/>
  <flow id="car_193253433#2_198876042#0_0008703c" type="car" begin="0" end="3600" vehsPerHour="26.05" departLane="best" departPos="random" departSpeed="0" from="193253433#2" to="198876042#0"/>
  <flow id="car_193253433#2_193253427#0_0008703c" type="car" begin="0" end="3600" vehsPerHour="23.11" departLane="best" departPos="random" departSpeed="0" from="193253433#2" to="193253427#0"/>
  <flow id="motorcycle_193253433#2_198876043#0_0008703c" type="motorcycle" begin="0" end="3600" vehsPerHour="116.40" departLane="best" departPos="random" departSpeed="0" from="193253433#2" to="198876043#0"/>
  <flow id="motorcycle_193253433#2_28231434_0008703c" type="motorcycle" begin="0" end="3600" vehsPerHour="103.04" departLane="best" departPos="random" departSpeed="0" from="193253433#2" to="28231434"/>
  <flow id="motorcycle_193253433#2_23241821#0_0008703c" type="motorcycle" begin="0" end="3600" vehsPerHour="90.06" departLane="best" departPos="random" departSpeed="0" from="193253433#2" to="23241821#0"/>
  <flow id="motorcycle_193253433#2_198876042#0_0008703c" type="motorcycle" begin="0" end="3600" vehsPerHour="84.27" departLane="best" departPos="random" departSpeed="0" from="193253433#2" to="198876042#0"/>
  <flow id="motorcycle_193253433#2_193253427#0_0008703c" type="motorcycle" begin="0" end="3600" vehsPerHour="65.96" departLane="best" departPos="random" departSpeed="0" from="193253433#2" to="193253427#0"/>
  <flow id="car_198876045#1_28231434_0008703c" type="car" begin="0" end="3600" vehsPerHour="33.56" departLane="best" departPos="random" departSpeed="0" from="198876045#1" to="28231434"/>
  <flow id="car_198876045#1_23241821#0_0008703c" type="car" begin="0" end="3600" vehsPerHour="29.33" departLane="best" departPos="random" departSpeed="0" from="198876045#1" to="23241821#0"/>
  <flow id="car_198876045#1_198876042#0_0008703c" type="car" begin="0" end="3600" vehsPerHour="25.69" departLane="best" departPos="random" departSpeed="0" from="198876045#1" to="198876042#0"/>
  <flow id="car_198876045#1_193253427#0_0008703c" type="car" begin="0" end="3600" vehsPerHour="23.00" departLane="best" departPos="random" departSpeed="0" from="198876045#1" to="193253427#0"/>
  <flow id="car_198876045#1_198876043#2_0008703c" type="car" begin="0" end="3600" vehsPerHour="21.14" departLane="best" departPos="random" departSpeed="0" from="198876045#1" to="198876043#2"/>
  <flow id="motorcycle_198876045#1_28231434_0008703c" type="motorcycle" begin="0" end="3600" vehsPerHour="99.19" departLane="best" departPos="random" departSpeed="0" from="198876045#1" to="28231434"/>
  <flow id="motorcycle_198876045#1_23241821#0_0008703c" type="motorcycle" begin="0" end="3600" vehsPerHour="91.57" departLane="best" departPos="random" departSpeed="0" from="198876045#1" to="23241821#0"/>
  <flow id="motorcycle_198876045#1_198876042#0_0008703c" type="motorcycle" begin="0" end="3600" vehsPerHour="78.49" departLane="best" departPos="random" departSpeed="0" from="198876045#1" to="198876042#0"/>
  <flow id="motorcycle_198876045#1_193253427#0_0008703c" type="motorcycle" begin="0" end="3600" vehsPerHour="76.58" departLane="best" departPos="random" departSpeed="0" from="198876045#1" to="193253427#0"/>
  <flow id="motorcycle_198876045#1_198876043#2_0008703c" type="motorcycle" begin="0" end="3600" vehsPerHour="65.50" departLane="best" departPos="random" departSpeed="0" from="198876045#1" to="198876043#2"/>
  <flow id="car_-28231434_23241821#0_0008703c" type="car" begin="0" end="3600" vehsPerHour="23.33" departLane="best" departPos="random" departSpeed="0" from="-28231434" to="23241821#0"/>
  <flow id="car_-28231434_198876042#0_0008703c" type="car" begin="0" end="3600" vehsPerHour="21.08" departLane="best" departPos="random" departSpeed="0" from="-28231434" to="198876042#0"/>
  <flow id="car_-28231434_193253427#0_0008703c" type="car" begin="0" end="3600" vehsPerHour="17.55" departLane="best" departPos="random" departSpeed="0" from="-28231434" to="193253427#0"/>
  <flow id="car_-28231434_198876043#2_0008703c" type="car" begin="0" end="3600" vehsPerHour="17.50" departLane="best" departPos="random" departSpeed="0" from="-28231434" to="198876043#2"/>
  <flow id="car_-28231434_28231434_0008703c" type="car" begin="0" end="3600" vehsPerHour="13.31" departLane="best" departPos="random" departSpeed="0" from="-28231434" to="28231434"/>
  <flow id="motorcycle_-28231434_23241821#0_0008703c" type="motorcycle" begin="0" end="3600" vehsPerHour="65.76" departLane="best" departPos="random" departSpeed="0" from="-28231434" to="23241821#0"/>
  <flow id="motorcycle_-28231434_198876042#0_0008703c" type="motorcycle" begin="0" end="3600" vehsPerHour="62.05" departLane="best" departPos="random" departSpeed="0" from="-28231434" to="198876042#0"/>
  <flow id="motorcycle_-28231434_193253427#0_0008703c" type="motorcycle" begin="0" end="3600" vehsPerHour="55.97" departLane="best" departPos="random" departSpeed="0" from="-28231434" to="193253427#0"/>
  <flow id="motorcycle_-28231434_198876043#2_0008703c" type="motorcycle" begin="0" end="3600" vehsPerHour="49.50" departLane="best" departPos="random" departSpeed="0" from="-28231434" to="198876043#2"/>
  <flow id="motorcycle_-28231434_28231434_0008703c" type="motorcycle" begin="0" end="3600" vehsPerHour="38.73" departLane="best" departPos="random" departSpeed="0" from="-28231434" to="28231434"/>
  <flow id="car_-55029244#0_198876042#0_0008703c" type="car" begin="0" end="3600" vehsPerHour="25.96" departLane="best" departPos="random" departSpeed="0" from="-55029244#0" to="198876042#0"/>
  <flow id="car_-55029244#0_193253427#0_0008703c" type="car" begin="0" end="3600" vehsPerHour="22.65" departLane="best" departPos="random" departSpeed="0" from="-55029244#0" to="193253427#0"/>
  <flow id="car_-55029244#0_198876043#2_0008703c" type="car" begin="0" end="3600" vehsPerHour="19.78" departLane="best" departPos="random" departSpeed="0" from="-55029244#0" to="198876043#2"/>
  <flow id="car_-55029244#0_28231434_0008703c" type="car" begin="0" end="3600" vehsPerHour="17.63" departLane="best" departPos="random" departSpeed="0" from="-55029244#0" to="28231434"/>
  <flow id="car_-55029244#0_23241821#0_0008703c" type="car" begin="0" end="3600" vehsPerHour="13.87" departLane="best" departPos="random" departSpeed="0" from="-55029244#0" to="23241821#0"/>
  <flow id="motorcycle_-55029244#0_198876042#0_0008703c" type="motorcycle" begin="0" end="3600" vehsPerHour="78.60" departLane="best" departPos="random" departSpeed="0" from="-55029244#0" to="198876042#0"/>
  <flow id="motorcycle_-55029244#0_193253427#0_0008703c" type="motorcycle" begin="0" end="3600" vehsPerHour="69.44" departLane="best" departPos="random" departSpeed="0" from="-55029244#0" to="193253427#0"/>
  <flow id="motorcycle_-55029244#0_198876043#2_0008703c" type="motorcycle" begin="0" end="3600" vehsPerHour="60.76" departLane="best" departPos="random" departSpeed="0" from="-55029244#0" to="198876043#2"/>
  <flow id="motorcycle_-55029244#0_28231434_0008703c" type="motorcycle" begin="0" end="3600" vehsPerHour="52.65" departLane="best" departPos="random" departSpeed="0" from="-55029244#0" to="28231434"/>
  <flow id="motorcycle_-55029244#0_23241821#0_0008703c" type="motorcycle" begin="0" end="3600" vehsPerHour="47.63" departLane="best" departPos="random" departSpeed="0" from="-55029244#0" to="23241821#0"/>
  <flow id="car_34241530#0_198876042#0_0008703c" type="car" begin="0" end="3600" vehsPerHour="27.47" departLane="best" departPos="random" departSpeed="0" from="34241530#0" to="198876042#0"/>
  <flow id="car_34241530#0_193253427#0_0008703c" type="car" begin="0" end="3600" vehsPerHour="24.10" departLane="best" departPos="random" departSpeed="0" from="34241530#0" to="193253427#0"/>
  <flow id="car_34241530#0_198876043#2_0008703c" type="car" begin="0" end="3600" vehsPerHour="21.05" departLane="best" departPos="random" departSpeed="0" from="34241530#0" to="198876043#2"/>
  <flow id="car_34241530#0_28231434_0008703c" type="car" begin="0" end="3600" vehsPerHour="16.58" departLane="best" departPos="random" departSpeed="0" from="34241530#0" to="28231434"/>
  <flow id="car_34241530#0_23241821#0_0008703c" type="car" begin="0" end="3600" vehsPerHour="13.97" departLane="best" departPos="random" departSpeed="0" from="34241530#0" to="23241821#0"/>
  <flow id="motorcycle_34241530#0_198876042#0_0008703c" type="motorcycle" begin="0" end="3600" vehsPerHour="77.64" departLane="best" departPos="random" departSpeed="0" from="34241530#0" to="198876042#0"/>
  <flow id="motorcycle_34241530#0_193253427#0_0008703c" type="motorcycle" begin="0" end="3600" vehsPerHour="70.07" departLane="best" departPos="random" departSpeed="0" from="34241530#0" to="193253427#0"/>
  <flow id="motorcycle_34241530#0_198876043#2_0008703c" type="motorcycle" begin="0" end="3600" vehsPerHour="60.78" departLane="best" departPos="random" departSpeed="0" from="34241530#0" to="198876043#2"/>
  <flow id="motorcycle_34241530#0_28231434_0008703c" type="motorcycle" begin="0" end="3600" vehsPerHour="52.03" departLane="best" departPos="random" departSpeed="0" from="34241530#0" to="28231434"/>
  <flow id="motorcycle_34241530#0_23241821#0_0008703c" type="motorcycle" begin="0" end="3600" vehsPerHour="45.07" departLane="best" departPos="random" departSpeed="0" from="34241530#0" to="23241821#0"/>
  <flow id="truck_34241530#0_198876042#0_0008703c" type="truck" begin="0" end="3600" vehsPerHour="11.85" departLane="best" departPos="random" departSpeed="0" from="34241530#0" to="198876042#0"/>
</routes>
