<routes>
<vType id="car" vClass="passenger" accel="2.6" decel="4.5" sigma="0.5" length="5.0" maxSpeed="13.9"/>
<vType id="motorcycle" vClass="motorcycle" accel="3.0" decel="5.0" sigma="0.5" length="2.0" maxSpeed="14.0"/>
<vType id="truck" vClass="truck" accel="1.2" decel="3.5" sigma="0.5" length="12.0" maxSpeed="10.0"/>

  <flow id="car_222682222#1_193253427#0_0005cda2" type="car" begin="0" end="3600" vehsPerHour="62.87" departLane="best" departPos="random" departSpeed="0" from="222682222#1" to="193253427#0"/>
  <flow id="car_222682222#1_198876043#0_0005cda2" type="car" begin="0" end="3600" vehsPerHour="48.85" departLane="best" departPos="random" departSpeed="0" from="222682222#1" to="198876043#0"/>
  <flow id="car_222682222#1_28231434_0005cda2" type="car" begin="0" end="3600" vehsPerHour="51.03" departLane="best" departPos="random" departSpeed="0" from="222682222#1" to="28231434"/>
  <flow id="car_222682222#1_23241821#0_0005cda2" type="car" begin="0" end="3600" vehsPerHour="40.60" departLane="best" departPos="random" departSpeed="0" from="222682222#1" to="23241821#0"/>
  <flow id="car_222682222#1_198876042#0_0005cda2" type="car" begin="0" end="3600" vehsPerHour="34.73" departLane="best" departPos="random" departSpeed="0" from="222682222#1" to="198876042#0"/>
  <flow id="motorcycle_222682222#1_193253427#0_0005cda2" type="motorcycle" begin="0" end="3600" vehsPerHour="181.15" departLane="best" departPos="random" departSpeed="0" from="222682222#1" to="193253427#0"/>
  <flow id="motorcycle_222682222#1_198876043#0_0005cda2" type="motorcycle" begin="0" end="3600" vehsPerHour="149.73" departLane="best" departPos="random" departSpeed="0" from="222682222#1" to="198876043#0"/>
  <flow id="motorcycle_222682222#1_28231434_0005cda2" type="motorcycle" begin="0" end="3600" vehsPerHour="146.57" departLane="best" departPos="random" departSpeed="0" from="222682222#1" to="28231434"/>
  <flow id="motorcycle_222682222#1_23241821#0_0005cda2" type="motorcycle" begin="0" end="3600" vehsPerHour="111.69" departLane="best" departPos="random" departSpeed="0" from="222682222#1" to="23241821#0"/>
  <flow id="motorcycle_222682222#1_198876042#0_0005cda2" type="motorcycle" begin="0" end="3600" vehsPerHour="104.37" departLane="best" departPos="random" departSpeed="0" from="222682222#1" to="198876042#0"/>
  <flow id="car_193253433#2_198876043#0_0005cda2" type="car" begin="0" end="3600" vehsPerHour="38.73" departLane="best" departPos="random" departSpeed="0" from="193253433#2" to="198876043#0"/>
  <flow id="car_193253433#2_28231434_0005cda2" type="car" begin="0" end="3600" vehsPerHour="32.88" departLane="best" departPos="random" departSpeed="0" from="193253433#2" to="28231434"/>
  <flow id="car_193253433#2_23241821#0_0005cda2" type="car" begin="0" end="3600" vehsPerHour="32.78" departLane="best" departPos="random" departSpeed="0" from="193253433#2" to="23241821#0"/>
  <flow id="car_193253433#2_198876042#0_0005cda2" type="car" begin="0" end="3600" vehsPerHour="27.64" departLane="best" departPos="random" departSpeed="0" from="193253433#2" to="198876042#0"/>
  <flow id="car_193253433#2_193253427#0_0005cda2" type="car" begin="0" end="3600" vehsPerHour="23.22" departLane="best" departPos="random" departSpeed="0" from="193253433#2" to="193253427#0"/>
  <flow id="motorcycle_193253433#2_198876043#0_0005cda2" type="motorcycle" begin="0" end="3600" vehsPerHour="117.29" departLane="best" departPos="random" departSpeed="0" from="193253433#2" to="198876043#0"/>
  <flow id="motorcycle_193253433#2_28231434_0005cda2" type="motorcycle" begin="0" end="3600" vehsPerHour="103.43" departLane="best" departPos="random" departSpeed="0" from="193253433#2" to="28231434"/>
  <flow id="motorcycle_193253433#2_23241821#0_0005cda2" type="motorcycle" begin="0" end="3600" vehsPerHour="93.09" departLane="best" departPos="random" departSpeed="0" from="193253433#2" to="23241821#0"/>
  <flow id="motorcycle_193253433#2_198876042#0_0005cda2" type="motorcycle" begin="0" end="3600" vehsPerHour="83.80" departLane="best" departPos="random" departSpeed="0" from="193253433#2" to="198876042#0"/>
  <flow id="motorcycle_193253433#2_193253427#0_0005cda2" type="motorcycle" begin="0" end="3600" vehsPerHour="70.58" departLane="best" departPos="random" departSpeed="0" from="193253433#2" to="193253427#0"/>
  <flow id="car_198876045#1_28231434_0005cda2" type="car" begin="0" end="3600" vehsPerHour="34.07" departLane="best" departPos="random" departSpeed="0" from="198876045#1" to="28231434"/>
  <flow id="car_198876045#1_23241821#0_0005cda2" type="car" begin="0" end="3600" vehsPerHour="30.02" departLane="best" departPos="random" departSpeed="0" from="198876045#1" to="23241821#0"/>
  <flow id="car_198876045#1_198876042#0_0005cda2" type="car" begin="0" end="3600" vehsPerHour="26.95" departLane="best" departPos="random" departSpeed="0" from="198876045#1" to="198876042#0"/>
  <flow id="car_198876045#1_193253427#0_0005cda2" type="car" begin="0" end="3600" vehsPerHour="22.41" departLane="best" departPos="random" departSpeed="0" from="198876045#1" to="193253427#0"/>
  <flow id="car_198876045#1_198876043#2_0005cda2" type="car" begin="0" end="3600" vehsPerHour="20.89" departLane="best" departPos="random" departSpeed="0" from="198876045#1" to="198876043#2"/>
  <flow id="motorcycle_198876045#1_28231434_0005cda2" type="motorcycle" begin="0" end="3600" vehsPerHour="104.89" departLane="best" departPos="random" departSpeed="0" from="198876045#1" to="28231434"/>
  <flow id="motorcycle_198876045#1_23241821#0_0005cda2" type="motorcycle" begin="0" end="3600" vehsPerHour="87.74" departLane="best" departPos="random" departSpeed="0" from="198876045#1" to="23241821#0"/>
  <flow id="motorcycle_198876045#1_198876042#0_0005cda2" type="motorcycle" begin="0" end="3600" vehsPerHour="80.03" departLane="best" departPos="random" departSpeed="0" from="198876045#1" to="198876042#0"/>
  <flow id="motorcycle_198876045#1_193253427#0_0005cda2" type="motorcycle" begin="0" end="3600" vehsPerHour="74.99" departLane="best" departPos="random" departSpeed="0" from="198876045#1" to="193253427#0"/>
  <flow id="motorcycle_198876045#1_198876043#2_0005cda2" type="motorcycle" begin="0" end="3600" vehsPerHour="67.07" departLane="best" departPos="random" departSpeed="0" from="198876045#1" to="198876043#2"/>
  <flow id="car_-28231434_23241821#0_0005cda2" type="car" begin="0" end="3600" vehsPerHour="23.06" departLane="best" departPos="random" departSpeed="0" from="-28231434" to="23241821#0"/>
  <flow id="car_-28231434_198876042#0_0005cda2" type="car" begin="0" end="3600" vehsPerHour="19.50" departLane="best" departPos="random" departSpeed="0" from="-28231434" to="198876042#0"/>
  <flow id="car_-28231434_193253427#0_0005cda2" type="car" begin="0" end="3600" vehsPerHour="16.71" departLane="best" departPos="random" departSpeed="0" from="-28231434" to="193253427#0"/>
  <flow id="car_-28231434_198876043#2_0005cda2" type="car" begin="0" end="3600" vehsPerHour="17.19" departLane="best" departPos="random" departSpeed="0" from="-28231434" to="198876043#2"/>
  <flow id="car_-28231434_28231434_0005cda2" type="car" begin="0" end="3600" vehsPerHour="13.95" departLane="best" departPos="random" departSpeed="0" from="-28231434" to="28231434"/>
  <flow id="motorcycle_-28231434_23241821#0_0005cda2" type="motorcycle" begin="0" end="3600" vehsPerHour="66.50" departLane="best" departPos="random" departSpeed="0" from="-28231434" to="23241821#0"/>
  <flow id="motorcycle_-28231434_198876042#0_0005cda2" type="motorcycle" begin="0" end="3600" vehsPerHour="63.32" departLane="best" departPos="random" departSpeed="0" from="-28231434" to="198876042#0"/>
  <flow id="motorcycle_-28231434_193253427#0_0005cda2" type="motorcycle" begin="0" end="3600" vehsPerHour="54.75" departLane="best" departPos="random" departSpeed="0" from="-28231434" to="193253427#0"/>
  <flow id="motorcycle_-28231434_198876043#2_0005cda2" type="motorcycle" begin="0" end="3600" vehsPerHour="47.69" departLane="best" departPos="random" departSpeed="0" from="-28231434" to="198876043#2"/>
  <flow id="motorcycle_-28231434_28231434_0005cda2" type="motorcycle" begin="0" end="3600" vehsPerHour="40.49" departLane="best" departPos="random" departSpeed="0" from="-28231434" to="28231434"/>
  <flow id="car_-55029244#0_198876042#0_0005cda2" type="car" begin="0" end="3600" vehsPerHour="26.70" departLane="best" departPos="random" departSpeed="0" from="-55029244#0" to="198876042#0"/>
  <flow id="car_-55029244#0_193253427#0_0005cda2" type="car" begin="0" end="3600" vehsPerHour="23.57" departLane="best" departPos="random" departSpeed="0" from="-55029244#0" to="193253427#0"/>
  <flow id="car_-55029244#0_198876043#2_0005cda2" type="car" begin="0" end="3600" vehsPerHour="20.84" departLane="best" departPos="random" departSpeed="0" from="-55029244#0" to="198876043#2"/>
  <flow id="car_-55029244#0_28231434_0005cda2" type="car" begin="0" end="3600" vehsPerHour="17.08" departLane="best" departPos="random" departSpeed="0" from="-55029244#0" to="28231434"/>
  <flow id="car_-55029244#0_23241821#0_0005cda2" type="car" begin="0" end="3600" vehsPerHour="13.64" departLane="best" departPos="random" departSpeed="0" from="-55029244#0" to="23241821#0"/>
  <flow id="motorcycle_-55029244#0_198876042#0_0005cda2" type="motorcycle" begin="0" end="3600" vehsPerHour="84.03" departLane="best" departPos="random" departSpeed="0" from="-55029244#0" to="198876042#0"/>
  <flow id="motorcycle_-55029244#0_193253427#0_0005cda2" type="motorcycle" begin="0" end="3600" vehsPerHour="70.51" departLane="best" departPos="random" departSpeed="0" from="-55029244#0" to="193253427#0"/>
  <flow id="motorcycle_-55029244#0_198876043#2_0005cda2" type="motorcycle" begin="0" end="3600" vehsPerHour="61.90" departLane="best" departPos="random" departSpeed="0" from="-55029244#0" to="198876043#2"/>
  <flow id="motorcycle_-55029244#0_28231434_0005cda2" type="motorcycle" begin="0" end="3600" vehsPerHour="52.45" departLane="best" departPos="random" departSpeed="0" from="-55029244#0" to="28231434"/>
  <flow id="motorcycle_-55029244#0_23241821#0_0005cda2" type="motorcycle" begin="0" end="3600" vehsPerHour="46.82" departLane="best" departPos="random" departSpeed="0" from="-55029244#0" to="23241821#0"/>
  <flow id="car_34241530#0_198876042#0_0005cda2" type="car" begin="0" end="3600" vehsPerHour="28.20" departLane="best" departPos="random" departSpeed="0" from="34241530#0" to="198876042#0"/>
  <flow id="car_34241530#0_193253427#0_0005cda2" type="car" begin="0" end="3600" vehsPerHour="23.63" departLane="best" departPos="random" departSpeed="0" from="34241530#0" to="193253427#0"/>
  <flow id="car_34241530#0_198876043#2_0005cda2" type="car" begin="0" end="3600" vehsPerHour="20.75" departLane="best" departPos="random" departSpeed="0" from="34241530#0" to="198876043#2"/>
  <flow id="car_34241530#0_28231434_0005cda2" type="car" begin="0" end="3600" vehsPerHour="16.54" departLane="best" departPos="random" departSpeed="0" from="34241530#0" to="28231434"/>
  <flow id="car_34241530#0_23241821#0_0005cda2" type="car" begin="0" end="3600" vehsPerHour="12.98" departLane="best" departPos="random" departSpeed="0" from="34241530#0" to="23241821#0"/>
  <flow id="motorcycle_34241530#0_198876042#0_0005cda2" type="motorcycle" begin="0" end="3600" vehsPerHour="77.90" departLane="best" departPos="random" departSpeed="0" from="34241530#0" to="198876042#0"/>
  <flow id="motorcycle_34241530#0_193253427#0_0005cda2" type="motorcycle" begin="0" end="3600" vehsPerHour="68.98" departLane="best" departPos="random" departSpeed="0" from="34241530#0" to="193253427#0"/>
  <flow id="motorcycle_34241530#0_198876043#2_0005cda2" type="motorcycle" begin="0" end="3600" vehsPerHour="58.68" departLane="best" departPos="random" departSpeed="0" from="34241530#0" to="198876043#2"/>
  <flow id="motorcycle_34241530#0_28231434_0005cda2" type="motorcycle" begin="0" end="3600" vehsPerHour="53.81" departLane="best" departPos="random" departSpeed="0" from="34241530#0" to="28231434"/>
  <flow id="motorcycle_34241530#0_23241821#0_0005cda2" type="motorcycle" begin="0" end="3600" vehsPerHour="45.39" departLane="best" departPos="random" departSpeed="0" from="34241530#0" to="23241821#0"/>
  <flow id="truck_34241530#0_198876042#0_0005cda2" type="truck" begin="0" end="3600" vehsPerHour="11.42" departLane="best" departPos="random" departSpeed="0" from="34241530#0" to="198876042#0"/>
</routes>
