<routes>
<vType id="car" vClass="passenger" accel="2.6" decel="4.5" sigma="0.5" length="5.0" maxSpeed="13.9"/>
<vType id="motorcycle" vClass="motorcycle" accel="3.0" decel="5.0" sigma="0.5" length="2.0" maxSpeed="14.0"/>
<vType id="truck" vClass="truck" accel="1.2" decel="3.5" sigma="0.5" length="12.0" maxSpeed="10.0"/>

  <flow id="car_222682222#1_193253427#0_000cc61b" type="car" begin="0" end="3600" vehsPerHour="59.66" departLane="best" departPos="random" departSpeed="0" from="222682222#1" to="193253427#0"/>
  <flow id="car_222682222#1_198876043#0_000cc61b" type="car" begin="0" end="3600" vehsPerHour="50.51" departLane="best" departPos="random" departSpeed="0" from="222682222#1" to="198876043#0"/>
  <flow id="car_222682222#1_28231434_000cc61b" type="car" begin="0" end="3600" vehsPerHour="52.68" departLane="best" departPos="random" departSpeed="0" from="222682222#1" to="28231434"/>
  <flow id="car_222682222#1_23241821#0_000cc61b" type="car" begin="0" end="3600" vehsPerHour="40.53" departLane="best" departPos="random" departSpeed="0" from="222682222#1" to="23241821#0"/>
  <flow id="car_222682222#1_198876042#0_000cc61b" type="car" begin="0" end="3600" vehsPerHour="32.68" departLane="best" departPos="random" departSpeed="0" from="222682222#1" to="198876042#0"/>
  <flow id="motorcycle_222682222#1_193253427#0_000cc61b" type="motorcycle" begin="0" end="3600" vehsPerHour="173.85" departLane="best" departPos="random" departSpeed="0" from="222682222#1" to="193253427#0"/>
  <flow id="motorcycle_222682222#1_198876043#0_000cc61b" type="motorcycle" begin="0" end="3600" vehsPerHour="158.59" departLane="best" departPos="random" departSpeed="0" from="222682222#1" to="198876043#0"/>
  <flow id="motorcycle_222682222#1_28231434_000cc61b" type="motorcycle" begin="0" end="3600" vehsPerHour="139.36" departLane="best" departPos="random" departSpeed="0" from="222682222#1" to="28231434"/>
  <flow id="motorcycle_222682222#1_23241821#0_000cc61b" type="motorcycle" begin="0" end="3600" vehsPerHour="112.72" departLane="best" departPos="random" departSpeed="0" from="222682222#1" to="23241821#0"/>
  <flow id="motorcycle_222682222#1_198876042#0_000cc61b" type="motorcycle" begin="0" end="3600" vehsPerHour="102.23" departLane="best" departPos="random" departSpeed="0" from="222682222#1" to="198876042#0"/>
  <flow id="car_193253433#2_198876043#0_000cc61b" type="car" begin="0" end="3600" vehsPerHour="40.05" departLane="best" departPos="random" departSpeed="0" from="193253433#2" to="198876043#0"/>
  <flow id="car_193253433#2_28231434_000cc61b" type="car" begin="0" end="3600" vehsPerHour="33.76" departLane="best" departPos="random" departSpeed="0" from="193253433#2" to="28231434"/>
  <flow id="car_193253433#2_23241821#0_000cc61b" type="car" begin="0" end="3600" vehsPerHour="32.52" departLane="best" departPos="random" departSpeed="0" from="193253433#2" to="23241821#0"/>
  <flow id="car_193253433#2_198876042#0_000cc61b" type="car" begin="0" end="3600" vehsPerHour="26.60" departLane="best" departPos="random" departSpeed="0" from="193253433#2" to="198876042#0"/>
  <flow id="car_193253433#2_193253427#0_000cc61b" type="car" begin="0" end="3600" vehsPerHour="22.64" departLane="best" departPos="random" departSpeed="0" from="193253433#2" to="193253427#0"/>
  <flow id="motorcycle_193253433#2_198876043#0_000cc61b" type="motorcycle" begin="0" end="3600" vehsPerHour="109.56" departLane="best" departPos="random" departSpeed="0" from="193253433#2" to="198876043#0"/>
  <flow id="motorcycle_193253433#2_28231434_000cc61b" type="motorcycle" begin="0" end="3600" vehsPerHour="98.52" departLane="best" departPos="random" departSpeed="0" from="193253433#2" to="28231434"/>
  <flow id="motorcycle_193253433#2_23241821#0_000cc61b" type="motorcycle" begin="0" end="3600" vehsPerHour="92.51" departLane="best" departPos="random" departSpeed="0" from="193253433#2" to="23241821#0"/>
  <flow id="motorcycle_193253433#2_198876042#0_000cc61b" type="motorcycle" begin="0" end="3600" vehsPerHour="77.73" departLane="best" departPos="random" departSpeed="0" from="193253433#2" to="198876042#0"/>
  <flow id="motorcycle_193253433#2_193253427#0_000cc61b" type="motorcycle" begin="0" end="3600" vehsPerHour="69.63" departLane="best" departPos="random" departSpeed="0" from="193253433#2" to="193253427#0"/>
  <flow id="car_198876045#1_28231434_000cc61b" type="car" begin="0" end="3600" vehsPerHour="33.09" departLane="best" departPos="random" departSpeed="0" from="198876045#1" to="28231434"/>
  <flow id="car_198876045#1_23241821#0_000cc61b" type="car" begin="0" end="3600" vehsPerHour="29.51" departLane="best" departPos="random" departSpeed="0" from="198876045#1" to="23241821#0"/>
  <flow id="car_198876045#1_198876042#0_000cc61b" type="car" begin="0" end="3600" vehsPerHour="26.12" departLane="best" departPos="random" departSpeed="0" from="198876045#1" to="198876042#0"/>
  <flow id="car_198876045#1_193253427#0_000cc61b" type="car" begin="0" end="3600" vehsPerHour="23.47" departLane="best" departPos="random" departSpeed="0" from="198876045#1" to="193253427#0"/>
  <flow id="car_198876045#1_198876043#2_000cc61b" type="car" begin="0" end="3600" vehsPerHour="20.26" departLane="best" departPos="random" departSpeed="0" from="198876045#1" to="198876043#2"/>
  <flow id="motorcycle_198876045#1_28231434_000cc61b" type="motorcycle" begin="0" end="3600" vehsPerHour="104.45" departLane="best" departPos="random" departSpeed="0" from="198876045#1" to="28231434"/>
  <flow id="motorcycle_198876045#1_23241821#0_000cc61b" type="motorcycle" begin="0" end="3600" vehsPerHour="90.11" departLane="best" departPos="random" departSpeed="0" from="198876045#1" to="23241821#0"/>
  <flow id="motorcycle_198876045#1_198876042#0_000cc61b" type="motorcycle" begin="0" end="3600" vehsPerHour="84.90" departLane="best" departPos="random" departSpeed="0" from="198876045#1" to="198876042#0"/>
  <flow id="motorcycle_198876045#1_193253427#0_000cc61b" type="motorcycle" begin="0" end="3600" vehsPerHour="75.57" departLane="best" departPos="random" departSpeed="0" from="198876045#1" to="193253427#0"/>
  <flow id="motorcycle_198876045#1_198876043#2_000cc61b" type="motorcycle" begin="0" end="3600" vehsPerHour="64.30" departLane="best" departPos="random" departSpeed="0" from="198876045#1" to="198876043#2"/>
  <flow id="car_-28231434_23241821#0_000cc61b" type="car" begin="0" end="3600" vehsPerHour="22.76" departLane="best" departPos="random" departSpeed="0" from="-28231434" to="23241821#0"/>
  <flow id="car_-28231434_198876042#0_000cc61b" type="car" begin="0" end="3600" vehsPerHour="19.97" departLane="best" departPos="random" departSpeed="0" from="-28231434" to="198876042#0"/>
  <flow id="car_-28231434_193253427#0_000cc61b" type="car" begin="0" end="3600" vehsPerHour="16.37" departLane="best" departPos="random" departSpeed="0" from="-28231434" to="193253427#0"/>
  <flow id="car_-28231434_198876043#2_000cc61b" type="car" begin="0" end="3600" vehsPerHour="17.06" departLane="best" departPos="random" departSpeed="0" from="-28231434" to="198876043#2"/>
  <flow id="car_-28231434_28231434_000cc61b" type="car" begin="0" end="3600" vehsPerHour="13.82" departLane="best" departPos="random" departSpeed="0" from="-28231434" to="28231434"/>
  <flow id="motorcycle_-28231434_23241821#0_000cc61b" type="motorcycle" begin="0" end="3600" vehsPerHour="67.62" departLane="best" departPos="random" departSpeed="0" from="-28231434" to="23241821#0"/>
  <flow id="motorcycle_-28231434_198876042#0_000cc61b" type="motorcycle" begin="0" end="3600" vehsPerHour="58.56" departLane="best" departPos="random" departSpeed="0" from="-28231434" to="198876042#0"/>
  <flow id="motorcycle_-28231434_193253427#0_000cc61b" type="motorcycle" begin="0" end="3600" vehsPerHour="51.26" departLane="best" departPos="random" departSpeed="0" from="-28231434" to="193253427#0"/>
  <flow id="motorcycle_-28231434_198876043#2_000cc61b" type="motorcycle" begin="0" end="3600" vehsPerHour="49.20" departLane="best" departPos="random" departSpeed="0" from="-28231434" to="198876043#2"/>
  <flow id="motorcycle_-28231434_28231434_000cc61b" type="motorcycle" begin="0" end="3600" vehsPerHour="41.54" departLane="best" departPos="random" departSpeed="0" from="-28231434" to="28231434"/>
  <flow id="car_-55029244#0_198876042#0_000cc61b" type="car" begin="0" end="3600" vehsPerHour="27.84" departLane="best" departPos="random" departSpeed="0" from="-55029244#0" to="198876042#0"/>
  <flow id="car_-55029244#0_193253427#0_000cc61b" type="car" begin="0" end="3600" vehsPerHour="23.45" departLane="best" departPos="random" departSpeed="0" from="-55029244#0" to="193253427#0"/>
  <flow id="car_-55029244#0_198876043#2_000cc61b" type="car" begin="0" end="3600" vehsPerHour="20.78" departLane="best" departPos="random" departSpeed="0" from="-55029244#0" to="198876043#2"/>
  <flow id="car_-55029244#0_28231434_000cc61b" type="car" begin="0" end="3600" vehsPerHour="16.79" departLane="best" departPos="random" departSpeed="0" from="-55029244#0" to="28231434"/>
  <flow id="car_-55029244#0_23241821#0_000cc61b" type="car" begin="0" end="3600" vehsPerHour="14.09" departLane="best" departPos="random" departSpeed="0" from="-55029244#0" to="23241821#0"/>
  <flow id="motorcycle_-55029244#0_198876042#0_000cc61b" type="motorcycle" begin="0" end="3600" vehsPerHour="78.11" departLane="best" departPos="random" departSpeed="0" from="-55029244#0" to="198876042#0"/>
  <flow id="motorcycle_-55029244#0_193253427#0_000cc61b" type="motorcycle" begin="0" end="3600" vehsPerHour="68.60" departLane="best" departPos="random" departSpeed="0" from="-55029244#0" to="193253427#0"/>
  <flow id="motorcycle_-55029244#0_198876043#2_000cc61b" type="motorcycle" begin="0" end="3600" vehsPerHour="61.05" departLane="best" departPos="random" departSpeed="0" from="-55029244#0" to="198876043#2"/>
  <flow id="motorcycle_-55029244#0_28231434_000cc61b" type="motorcycle" begin="0" end="3600" vehsPerHour="56.58" departLane="best" departPos="random" departSpeed="0" from="-55029244#0" to="28231434"/>
  <flow id="motorcycle_-55029244#0_23241821#0_000cc61b" type="motorcycle" begin="0" end="3600" vehsPerHour="46.40" departLane="best" departPos="random" departSpeed="0" from="-55029244#0" to="23241821#0"/>
  <flow id="car_34241530#0_198876042#0_000cc61b" type="car" begin="0" end="3600" vehsPerHour="26.28" departLane="best" departPos="random" departSpeed="0" from="34241530#0" to="198876042#0"/>
  <flow id="car_34241530#0_193253427#0_000cc61b" type="car" begin="0" end="3600" vehsPerHour="23.80" departLane="best" departPos="random" departSpeed="0" from="34241530#0" to="193253427#0"/>
  <flow id="car_34241530#0_198876043#2_000cc61b" type="car" begin="0" end="3600" vehsPerHour="19.27" departLane="best" departPos="random" departSpeed="0" from="34241530#0" to="198876043#2"/>
  <flow id="car_34241530#0_28231434_000cc61b" type="car" begin="0" end="3600" vehsPerHour="17.52" departLane="best" departPos="random" departSpeed="0" from="34241530#0" to="28231434"/>
  <flow id="car_34241530#0_23241821#0_000cc61b" type="car" begin="0" end="3600" vehsPerHour="13.49" departLane="best" departPos="random" departSpeed="0" from="34241530#0" to="23241821#0"/>
  <flow id="motorcycle_34241530#0_198876042#0_000cc61b" type="motorcycle" begin="0" end="3600" vehsPerHour="80.94" departLane="best" departPos="random" departSpeed="0" from="34241530#0" to="198876042#0"/>
  <flow id="motorcycle_34241530#0_193253427#0_000cc61b" type="motorcycle" begin="0" end="3600" vehsPerHour="69.55" departLane="best" departPos="random" departSpeed="0" from="34241530#0" to="193253427#0"/>
  <flow id="motorcycle_34241530#0_198876043#2_000cc61b" type="motorcycle" begin="0" end="3600" vehsPerHour="62.40" departLane="best" departPos="random" departSpeed="0" from="34241530#0" to="198876043#2"/>
  <flow id="motorcycle_34241530#0_28231434_000cc61b" type="motorcycle" begin="0" end="3600" vehsPerHour="55.08" departLane="best" departPos="random" departSpeed="0" from="34241530#0" to="28231434"/>
  <flow id="motorcycle_34241530#0_23241821#0_000cc61b" type="motorcycle" begin="0" end="3600" vehsPerHour="46.87" departLane="best" departPos="random" departSpeed="0" from="34241530#0" to="23241821#0"/>
  <flow id="truck_34241530#0_198876042#0_000cc61b" type="truck" begin="0" end="3600" vehsPerHour="12.10" departLane="best" departPos="random" departSpeed="0" from="34241530#0" to="198876042#0"/>
</routes>
