<routes>
<vType id="car" vClass="passenger" accel="2.6" decel="4.5" sigma="0.5" length="5.0" maxSpeed="13.9"/>
<vType id="motorcycle" vClass="motorcycle" accel="3.0" decel="5.0" sigma="0.5" length="2.0" maxSpeed="14.0"/>
<vType id="truck" vClass="truck" accel="1.2" decel="3.5" sigma="0.5" length="12.0" maxSpeed="10.0"/>

  <flow id="car_222682222#1_193253427#0_000419ff" type="car" begin="0" end="3600" vehsPerHour="61.72" departLane="best" departPos="random" departSpeed="0" from="222682222#1" to="193253427#0"/>
  <flow id="car_222682222#1_198876043#0_000419ff" type="car" begin="0" end="3600" vehsPerHour="52.18" departLane="best" departPos="random" departSpeed="0" from="222682222#1" to="198876043#0"/>
  <flow id="car_222682222#1_28231434_000419ff" type="car" begin="0" end="3600" vehsPerHour="50.02" departLane="best" departPos="random" departSpeed="0" from="222682222#1" to="28231434"/>
  <flow id="car_222682222#1_23241821#0_000419ff" type="car" begin="0" end="3600" vehsPerHour="40.81" departLane="best" departPos="random" departSpeed="0" from="222682222#1" to="23241821#0"/>
  <flow id="car_222682222#1_198876042#0_000419ff" type="car" begin="0" end="3600" vehsPerHour="32.65" departLane="best" departPos="random" departSpeed="0" from="222682222#1" to="198876042#0"/>
  <flow id="motorcycle_222682222#1_193253427#0_000419ff" type="motorcycle" begin="0" end="3600" vehsPerHour="178.84" departLane="best" departPos="random" departSpeed="0" from="222682222#1" to="193253427#0"/>
  <flow id="motorcycle_222682222#1_198876043#0_000419ff" type="motorcycle" begin="0" end="3600" vehsPerHour="160.23" departLane="best" departPos="random" departSpeed="0" from="222682222#1" to="198876043#0"/>
  <flow id="motorcycle_222682222#1_28231434_000419ff" type="motorcycle" begin="0" end="3600" vehsPerHour="139.97" departLane="best" departPos="random" departSpeed="0" from="222682222#1" to="28231434"/>
  <flow id="motorcycle_222682222#1_23241821#0_000419ff" type="motorcycle" begin="0" end="3600" vehsPerHour="119.59" departLane="best" departPos="random" departSpeed="0" from="222682222#1" to="23241821#0"/>
  <flow id="motorcycle_222682222#1_198876042#0_000419ff" type="motorcycle" begin="0" end="3600" vehsPerHour="99.36" departLane="best" departPos="random" departSpeed="0" from="222682222#1" to="198876042#0"/>
  <flow id="car_193253433#2_198876043#0_000419ff" type="car" begin="0" end="3600" vehsPerHour="39.82" departLane="best" departPos="random" departSpeed="0" from="193253433#2" to="198876043#0"/>
  <flow id="car_193253433#2_28231434_000419ff" type="car" begin="0" end="3600" vehsPerHour="34.95" departLane="best" departPos="random" departSpeed="0" from="193253433#2" to="28231434"/>
  <flow id="car_193253433#2_23241821#0_000419ff" type="car" begin="0" end="3600" vehsPerHour="35.30" departLane="best" departPos="random" departSpeed="0" from="193253433#2" to="23241821#0"/>
  <flow id="car_193253433#2_198876042#0_000419ff" type="car" begin="0" end="3600" vehsPerHour="26.03" departLane="best" departPos="random" departSpeed="0" from="193253433#2" to="198876042#0"/>
  <flow id="car_193253433#2_193253427#0_000419ff" type="car" begin="0" end="3600" vehsPerHour="24.62" departLane="best" departPos="random" departSpeed="0" from="193253433#2" to="193253427#0"/>
  <flow id="motorcycle_193253433#2_198876043#0_000419ff" type="motorcycle" begin="0" end="3600" vehsPerHour="117.51" departLane="best" departPos="random" departSpeed="0" from="193253433#2" to="198876043#0"/>
  <flow id="motorcycle_193253433#2_28231434_000419ff" type="motorcycle" begin="0" end="3600" vehsPerHour="104.33" departLane="best" departPos="random" departSpeed="0" from="193253433#2" to="28231434"/>
  <flow id="motorcycle_193253433#2_23241821#0_000419ff" type="motorcycle" begin="0" end="3600" vehsPerHour="91.29" departLane="best" departPos="random" departSpeed="0" from="193253433#2" to="23241821#0"/>
  <flow id="motorcycle_193253433#2_198876042#0_000419ff" type="motorcycle" begin="0" end="3600" vehsPerHour="80.02" departLane="best" departPos="random" departSpeed="0" from="193253433#2" to="198876042#0"/>
  <flow id="motorcycle_193253433#2_193253427#0_000419ff" type="motorcycle" begin="0" end="3600" vehsPerHour="69.92" departLane="best" departPos="random" departSpeed="0" from="193253433#2" to="193253427#0"/>
  <flow id="car_198876045#1_28231434_000419ff" type="car" begin="0" end="3600" vehsPerHour="34.02" departLane="best" departPos="random" departSpeed="0" from="198876045#1" to="28231434"/>
  <flow id="car_198876045#1_23241821#0_000419ff" type="car" begin="0" end="3600" vehsPerHour="31.69" departLane="best" departPos="random" departSpeed="0" from="198876045#1" to="23241821#0"/>
  <flow id="car_198876045#1_198876042#0_000419ff" type="car" begin="0" end="3600" vehsPerHour="26.23" departLane="best" departPos="random" departSpeed="0" from="198876045#1" to="198876042#0"/>
  <flow id="car_198876045#1_193253427#0_000419ff" type="car" begin="0" end="3600" vehsPerHour="24.04" departLane="best" departPos="random" departSpeed="0" from="198876045#1" to="193253427#0"/>
  <flow id="car_198876045#1_198876043#2_000419ff" type="car" begin="0" end="3600" vehsPerHour="19.83" departLane="best" departPos="random" departSpeed="0" from="198876045#1" to="198876043#2"/>
  <flow id="motorcycle_198876045#1_28231434_000419ff" type="motorcycle" begin="0" end="3600" vehsPerHour="104.69" departLane="best" departPos="random" departSpeed="0" from="198876045#1" to="28231434"/>
  <flow id="motorcycle_198876045#1_23241821#0_000419ff" type="motorcycle" begin="0" end="3600" vehsPerHour="84.44" departLane="best" departPos="random" departSpeed="0" from="198876045#1" to="23241821#0"/>
  <flow id="motorcycle_198876045#1_198876042#0_000419ff" type="motorcycle" begin="0" end="3600" vehsPerHour="81.13" departLane="best" departPos="random" departSpeed="0" from="198876045#1" to="198876042#0"/>
  <flow id="motorcycle_198876045#1_193253427#0_000419ff" type="motorcycle" begin="0" end="3600" vehsPerHour="70.86" departLane="best" departPos="random" departSpeed="0" from="198876045#1" to="193253427#0"/>
  <flow id="motorcycle_198876045#1_198876043#2_000419ff" type="motorcycle" begin="0" end="3600" vehsPerHour="70.34" departLane="best" departPos="random" departSpeed="0" from="198876045#1" to="198876043#2"/>
  <flow id="car_-28231434_23241821#0_000419ff" type="car" begin="0" end="3600" vehsPerHour="22.80" departLane="best" departPos="random" departSpeed="0" from="-28231434" to="23241821#0"/>
  <flow id="car_-28231434_198876042#0_000419ff" type="car" begin="0" end="3600" vehsPerHour="19.79" departLane="best" departPos="random" departSpeed="0" from="-28231434" to="198876042#0"/>
  <flow id="car_-28231434_193253427#0_000419ff" type="car" begin="0" end="3600" vehsPerHour="16.91" departLane="best" departPos="random" departSpeed="0" from="-28231434" to="193253427#0"/>
  <flow id="car_-28231434_198876043#2_000419ff" type="car" begin="0" end="3600" vehsPerHour="17.16" departLane="best" departPos="random" departSpeed="0" from="-28231434" to="198876043#2"/>
  <flow id="car_-28231434_28231434_000419ff" type="car" begin="0" end="3600" vehsPerHour="13.45" departLane="best" departPos="random" departSpeed="0" from="-28231434" to="28231434"/>
  <flow id="motorcycle_-28231434_23241821#0_000419ff" type="motorcycle" begin="0" end="3600" vehsPerHour="64.91" departLane="best" departPos="random" departSpeed="0" from="-28231434" to="23241821#0"/>
  <flow id="motorcycle_-28231434_198876042#0_000419ff" type="motorcycle" begin="0" end="3600" vehsPerHour="60.18" departLane="best" departPos="random" departSpeed="0" from="-28231434" to="198876042#0"/>
  <flow id="motorcycle_-28231434_193253427#0_000419ff" type="motorcycle" begin="0" end="3600" vehsPerHour="53.63" departLane="best" departPos="random" departSpeed="0" from="-28231434" to="193253427#0"/>
  <flow id="motorcycle_-28231434_198876043#2_000419ff" type="motorcycle" begin="0" end="3600" vehsPerHour="49.32" departLane="best" departPos="random" departSpeed="0" from="-28231434" to="198876043#2"/>
  <flow id="motorcycle_-28231434_28231434_000419ff" type="motorcycle" begin="0" end="3600" vehsPerHour="39.70" departLane="best" departPos="random" departSpeed="0" from="-28231434" to="28231434"/>
  <flow id="car_-55029244#0_198876042#0_000419ff" type="car" begin="0" end="3600" vehsPerHour="26.33" departLane="best" departPos="random" departSpeed="0" from="-55029244#0" to="198876042#0"/>
  <flow id="car_-55029244#0_193253427#0_000419ff" type="car" begin="0" end="3600" vehsPerHour="24.66" departLane="best" departPos="random" departSpeed="0" from="-55029244#0" to="193253427#0"/>
  <flow id="car_-55029244#0_198876043#2_000419ff" type="car" begin="0" end="3600" vehsPerHour="19.91" departLane="best" departPos="random" departSpeed="0" from="-55029244#0" to="198876043#2"/>
  <flow id="car_-55029244#0_28231434_000419ff" type="car" begin="0" end="3600" vehsPerHour="17.67" departLane="best" departPos="random" departSpeed="0" from="-55029244#0" to="28231434"/>
  <flow id="car_-55029244#0_23241821#0_000419ff" type="car" begin="0" end="3600" vehsPerHour="14.07" departLane="best" departPos="random" departSpeed="0" from="-55029244#0" to="23241821#0"/>
  <flow id="motorcycle_-55029244#0_198876042#0_000419ff" type="motorcycle" begin="0" end="3600" vehsPerHour="80.64" departLane="best" departPos="random" departSpeed="0" from="-55029244#0" to="198876042#0"/>
  <flow id="motorcycle_-55029244#0_193253427#0_000419ff" type="motorcycle" begin="0" end="3600" vehsPerHour="67.92" departLane="best" departPos="random" departSpeed="0" from="-55029244#0" to="193253427#0"/>
  <flow id="motorcycle_-55029244#0_198876043#2_000419ff" type="motorcycle" begin="0" end="3600" vehsPerHour="63.39" departLane="best" departPos="random" departSpeed="0" from="-55029244#0" to="198876043#2"/>
  <flow id="motorcycle_-55029244#0_28231434_000419ff" type="motorcycle" begin="0" end="3600" vehsPerHour="53.99" departLane="best" departPos="random" departSpeed="0" from="-55029244#0" to="28231434"/>
  <flow id="motorcycle_-55029244#0_23241821#0_000419ff" type="motorcycle" begin="0" end="3600" vehsPerHour="48.51" departLane="best" departPos="random" departSpeed="0" from="-55029244#0" to="23241821#0"/>
  <flow id="car_34241530#0_198876042#0_000419ff" type="car" begin="0" end="3600" vehsPerHour="25.77" departLane="best" departPos="random" departSpeed="0" from="34241530#0" to="198876042#0"/>
  <flow id="car_34241530#0_193253427#0_000419ff" type="car" begin="0" end="3600" vehsPerHour="24.24" departLane="best" departPos="random" departSpeed="0" from="34241530#0" to="193253427#0"/>
  <flow id="car_34241530#0_198876043#2_000419ff" type="car" begin="0" end="3600" vehsPerHour="20.21" departLane="best" departPos="random" departSpeed="0" from="34241530#0" to="198876043#2"/>
  <flow id="car_34241530#0_28231434_000419ff" type="car" begin="0" end="3600" vehsPerHour="17.15" departLane="best" departPos="random" departSpeed="0" from="34241530#0" to="28231434"/>
  <flow id="car_34241530#0_23241821#0_000419ff" type="car" begin="0" end="3600" vehsPerHour="13.50" departLane="best" departPos="random" departSpeed="0" from="34241530#0" to="23241821#0"/>
  <flow id="motorcycle_34241530#0_198876042#0_000419ff" type="motorcycle" begin="0" end="3600" vehsPerHour="83.85" departLane="best" departPos="random" departSpeed="0" from="34241530#0" to="198876042#0"/>
  <flow id="motorcycle_34241530#0_193253427#0_000419ff" type="motorcycle" begin="0" end="3600" vehsPerHour="67.87" departLane="best" departPos="random" departSpeed="0" from="34241530#0" to="193253427#0"/>
  <flow id="motorcycle_34241530#0_198876043#2_000419ff" type="motorcycle" begin="0" end="3600" vehsPerHour="61.01" departLane="best" departPos="random" departSpeed="0" from="34241530#0" to="198876043#2"/>
  <flow id="motorcycle_34241530#0_28231434_000419ff" type="motorcycle" begin="0" end="3600" vehsPerHour="53.17" departLane="best" departPos="random" departSpeed="0" from="34241530#0" to="28231434"/>
  <flow id="motorcycle_34241530#0_23241821#0_000419ff" type="motorcycle" begin="0" end="3600" vehsPerHour="48.58" departLane="best" departPos="random" departSpeed="0" from="34241530#0" to="23241821#0"/>
  <flow id="truck_34241530#0_198876042#0_000419ff" type="truck" begin="0" end="3600" vehsPerHour="11.52" departLane="best" departPos="random" departSpeed="0" from="34241530#0" to="198876042#0"/>
</routes>
