<routes>
<vType id="car" vClass="passenger" accel="2.6" decel="4.5" sigma="0.5" length="5.0" maxSpeed="13.9"/>
<vType id="motorcycle" vClass="motorcycle" accel="3.0" decel="5.0" sigma="0.5" length="2.0" maxSpeed="14.0"/>
<vType id="truck" vClass="truck" accel="1.2" decel="3.5" sigma="0.5" length="12.0" maxSpeed="10.0"/>

  <flow id="car_222682222#1_193253427#0_0008128c" type="car" begin="0" end="3600" vehsPerHour="61.73" departLane="best" departPos="random" departSpeed="0" from="222682222#1" to="193253427#0"/>
  <flow id="car_222682222#1_198876043#0_0008128c" type="car" begin="0" end="3600" vehsPerHour="51.96" departLane="best" departPos="random" departSpeed="0" from="222682222#1" to="198876043#0"/>
  <flow id="car_222682222#1_28231434_0008128c" type="car" begin="0" end="3600" vehsPerHour="49.68" departLane="best" departPos="random" departSpeed="0" from="222682222#1" to="28231434"/>
  <flow id="car_222682222#1_23241821#0_0008128c" type="car" begin="0" end="3600" vehsPerHour="42.31" departLane="best" departPos="random" departSpeed="0" from="222682222#1" to="23241821#0"/>
  <flow id="car_222682222#1_198876042#0_0008128c" type="car" begin="0" end="3600" vehsPerHour="33.58" departLane="best" departPos="random" departSpeed="0" from="222682222#1" to="198876042#0"/>
  <flow id="motorcycle_222682222#1_193253427#0_0008128c" type="motorcycle" begin="0" end="3600" vehsPerHour="174.98" departLane="best" departPos="random" departSpeed="0" from="222682222#1" to="193253427#0"/>
  <flow id="motorcycle_222682222#1_198876043#0_0008128c" type="motorcycle" begin="0" end="3600" vehsPerHour="162.55" departLane="best" departPos="random" departSpeed="0" from="222682222#1" to="198876043#0"/>
  <flow id="motorcycle_222682222#1_28231434_0008128c" type="motorcycle" begin="0" end="3600" vehsPerHour="147.73" departLane="best" departPos="random" departSpeed="0" from="222682222#1" to="28231434"/>
  <flow id="motorcycle_222682222#1_23241821#0_0008128c" type="motorcycle" begin="0" end="3600" vehsPerHour="117.52" departLane="best" departPos="random" departSpeed="0" from="222682222#1" to="23241821#0"/>
  <flow id="motorcycle_222682222#1_198876042#0_0008128c" type="motorcycle" begin="0" end="3600" vehsPerHour="105.58" departLane="best" departPos="random" departSpeed="0" from="222682222#1" to="198876042#0"/>
  <flow id="car_193253433#2_198876043#0_0008128c" type="car" begin="0" end="3600" vehsPerHour="39.48" departLane="best" departPos="random" departSpeed="0" from="193253433#2" to="198876043#0"/>
  <flow id="car_193253433#2_28231434_0008128c" type="car" begin="0" end="3600" vehsPerHour="32.11" departLane="best" departPos="random" departSpeed="0" from="193253433#2" to="28231434"/>
  <flow id="car_193253433#2_23241821#0_0008128c" type="car" begin="0" end="3600" vehsPerHour="34.84" departLane="best" departPos="random" departSpeed="0" from="193253433#2" to="23241821#0"/>
  <flow id="car_193253433#2_198876042#0_0008128c" type="car" begin="0" end="3600" vehsPerHour="27.77" departLane="best" departPos="random" departSpeed="0" from="193253433#2" to="198876042#0"/>
  <flow id="car_193253433#2_193253427#0_0008128c" type="car" begin="0" end="3600" vehsPerHour="24.66" departLane="best" departPos="random" departSpeed="0" from="193253433#2" to="193253427#0"/>
  <flow id="motorcycle_193253433#2_198876043#0_0008128c" type="motorcycle" begin="0" end="3600" vehsPerHour="114.68" departLane="best" departPos="random" departSpeed="0" from="193253433#2" to="198876043#0"/>
  <flow id="motorcycle_193253433#2_28231434_0008128c" type="motorcycle" begin="0" end="3600" vehsPerHour="97.96" departLane="best" departPos="random" departSpeed="0" from="193253433#2" to="28231434"/>
  <flow id="motorcycle_193253433#2_23241821#0_0008128c" type="motorcycle" begin="0" end="3600" vehsPerHour="96.15" departLane="best" departPos="random" departSpeed="0" from="193253433#2" to="23241821#0"/>
  <flow id="motorcycle_193253433#2_198876042#0_0008128c" type="motorcycle" begin="0" end="3600" vehsPerHour="81.41" departLane="best" departPos="random" departSpeed="0" from="193253433#2" to="198876042#0"/>
  <flow id="motorcycle_193253433#2_193253427#0_0008128c" type="motorcycle" begin="0" end="3600" vehsPerHour="70.04" departLane="best" departPos="random" departSpeed="0" from="193253433#2" to="193253427#0"/>
  <flow id="car_198876045#1_28231434_0008128c" type="car" begin="0" end="3600" vehsPerHour="33.32" departLane="best" departPos="random" departSpeed="0" from="198876045#1" to="28231434"/>
  <flow id="car_198876045#1_23241821#0_0008128c" type="car" begin="0" end="3600" vehsPerHour="31.20" departLane="best" departPos="random" departSpeed="0" from="198876045#1" to="23241821#0"/>
  <flow id="car_198876045#1_198876042#0_0008128c" type="car" begin="0" end="3600" vehsPerHour="26.94" departLane="best" departPos="random" departSpeed="0" from="198876045#1" to="198876042#0"/>
  <flow id="car_198876045#1_193253427#0_0008128c" type="car" begin="0" end="3600" vehsPerHour="23.29" departLane="best" departPos="random" departSpeed="0" from="198876045#1" to="193253427#0"/>
  <flow id="car_198876045#1_198876043#2_0008128c" type="car" begin="0" end="3600" vehsPerHour="20.98" departLane="best" departPos="random" departSpeed="0" from="198876045#1" to="198876043#2"/>
  <flow id="motorcycle_198876045#1_28231434_0008128c" type="motorcycle" begin="0" end="3600" vehsPerHour="102.15" departLane="best" departPos="random" departSpeed="0" from="198876045#1" to="28231434"/>
  <flow id="motorcycle_198876045#1_23241821#0_0008128c" type="motorcycle" begin="0" end="3600" vehsPerHour="89.49" departLane="best" departPos="random" departSpeed="0" from="198876045#1" to="23241821#0"/>
  <flow id="motorcycle_198876045#1_198876042#0_0008128c" type="motorcycle" begin="0" end="3600" vehsPerHour="80.87" departLane="best" departPos="random" departSpeed="0" from="198876045#1" to="198876042#0"/>
  <flow id="motorcycle_198876045#1_193253427#0_0008128c" type="motorcycle" begin="0" end="3600" vehsPerHour="76.15" departLane="best" departPos="random" departSpeed="0" from="198876045#1" to="193253427#0"/>
  <flow id="motorcycle_198876045#1_198876043#2_0008128c" type="motorcycle" begin="0" end="3600" vehsPerHour="70.28" departLane="best" departPos="random" departSpeed="0" from="198876045#1" to="198876043#2"/>
  <flow id="car_-28231434_23241821#0_0008128c" type="car" begin="0" end="3600" vehsPerHour="24.22" departLane="best" departPos="random" departSpeed="0" from="-28231434" to="23241821#0"/>
  <flow id="car_-28231434_198876042#0_0008128c" type="car" begin="0" end="3600" vehsPerHour="21.04" departLane="best" departPos="random" departSpeed="0" from="-28231434" to="198876042#0"/>
  <flow id="car_-28231434_193253427#0_0008128c" type="car" begin="0" end="3600" vehsPerHour="17.32" departLane="best" departPos="random" departSpeed="0" from="-28231434" to="193253427#0"/>
  <flow id="car_-28231434_198876043#2_0008128c" type="car" begin="0" end="3600" vehsPerHour="17.04" departLane="best" departPos="random" departSpeed="0" from="-28231434" to="198876043#2"/>
  <flow id="car_-28231434_28231434_0008128c" type="car" begin="0" end="3600" vehsPerHour="13.68" departLane="best" departPos="random" departSpeed="0" from="-28231434" to="28231434"/>
  <flow id="motorcycle_-28231434_23241821#0_0008128c" type="motorcycle" begin="0" end="3600" vehsPerHour="66.04" departLane="best" departPos="random" departSpeed="0" from="-28231434" to="23241821#0"/>
  <flow id="motorcycle_-28231434_198876042#0_0008128c" type="motorcycle" begin="0" end="3600" vehsPerHour="61.24" departLane="best" departPos="random" departSpeed="0" from="-28231434" to="198876042#0"/>
  <flow id="motorcycle_-28231434_193253427#0_0008128c" type="motorcycle" begin="0" end="3600" vehsPerHour="55.64" departLane="best" departPos="random" departSpeed="0" from="-28231434" to="193253427#0"/>
  <flow id="motorcycle_-28231434_198876043#2_0008128c" type="motorcycle" begin="0" end="3600" vehsPerHour="44.85" departLane="best" departPos="random" departSpeed="0" from="-28231434" to="198876043#2"/>
  <flow id="motorcycle_-28231434_28231434_0008128c" type="motorcycle" begin="0" end="3600" vehsPerHour="40.24" departLane="best" departPos="random" departSpeed="0" from="-28231434" to="28231434"/>
  <flow id="car_-55029244#0_198876042#0_0008128c" type="car" begin="0" end="3600" vehsPerHour="27.31" departLane="best" departPos="random" departSpeed="0" from="-55029244#0" to="198876042#0"/>
  <flow id="car_-55029244#0_193253427#0_0008128c" type="car" begin="0" end="3600" vehsPerHour="22.86" departLane="best" departPos="random" departSpeed="0" from="-55029244#0" to="193253427#0"/>
  <flow id="car_-55029244#0_198876043#2_0008128c" type="car" begin="0" end="3600" vehsPerHour="20.23" departLane="best" departPos="random" departSpeed="0" from="-55029244#0" to="198876043#2"/>
  <flow id="car_-55029244#0_28231434_0008128c" type="car" begin="0" end="3600" vehsPerHour="17.68" departLane="best" departPos="random" departSpeed="0" from="-55029244#0" to="28231434"/>
  <flow id="car_-55029244#0_23241821#0_0008128c" type="car" begin="0" end="3600" vehsPerHour="13.47" departLane="best" departPos="random" departSpeed="0" from="-55029244#0" to="23241821#0"/>
  <flow id="motorcycle_-55029244#0_198876042#0_0008128c" type="motorcycle" begin="0" end="3600" vehsPerHour="77.54" departLane="best" departPos="random" departSpeed="0" from="-55029244#0" to="198876042#0"/>
  <flow id="motorcycle_-55029244#0_193253427#0_0008128c" type="motorcycle" begin="0" end="3600" vehsPerHour="64.46" departLane="best" departPos="random" departSpeed="0" from="-55029244#0" to="193253427#0"/>
  <flow id="motorcycle_-55029244#0_198876043#2_0008128c" type="motorcycle" begin="0" end="3600" vehsPerHour="62.52" departLane="best" departPos="random" departSpeed="0" from="-55029244#0" to="198876043#2"/>
  <flow id="motorcycle_-55029244#0_28231434_0008128c" type="motorcycle" begin="0" end="3600" vehsPerHour="55.40" departLane="best" departPos="random" departSpeed="0" from="-55029244#0" to="28231434"/>
  <flow id="motorcycle_-55029244#0_23241821#0_0008128c" type="motorcycle" begin="0" end="3600" vehsPerHour="44.82" departLane="best" departPos="random" departSpeed="0" from="-55029244#0" to="23241821#0"/>
  <flow id="car_34241530#0_198876042#0_0008128c" type="car" begin="0" end="3600" vehsPerHour="27.06" departLane="best" departPos="random" departSpeed="0" from="34241530#0" to="198876042#0"/>
  <flow id="car_34241530#0_193253427#0_0008128c" type="car" begin="0" end="3600" vehsPerHour="23.03" departLane="best" departPos="random" departSpeed="0" from="34241530#0" to="193253427#0"/>
  <flow id="car_34241530#0_198876043#2_0008128c" type="car" begin="0" end="3600" vehsPerHour="20.79" departLane="best" departPos="random" departSpeed="0" from="34241530#0" to="198876043#2"/>
  <flow id="car_34241530#0_28231434_0008128c" type="car" begin="0" end="3600" vehsPerHour="17.58" departLane="best" departPos="random" departSpeed="0" from="34241530#0" to="28231434"/>
  <flow id="car_34241530#0_23241821#0_0008128c" type="car" begin="0" end="3600" vehsPerHour="12.89" departLane="best" departPos="random" departSpeed="0" from="34241530#0" to="23241821#0"/>
  <flow id="motorcycle_34241530#0_198876042#0_0008128c" type="motorcycle" begin="0" end="3600" vehsPerHour="79.01" departLane="best" departPos="random" departSpeed="0" from="34241530#0" to="198876042#0"/>
  <flow id="motorcycle_34241530#0_193253427#0_0008128c" type="motorcycle" begin="0" end="3600" vehsPerHour="70.67" departLane="best" departPos="random" departSpeed="0" from="34241530#0" to="193253427#0"/>
  <flow id="motorcycle_34241530#0_198876043#2_0008128c" type="motorcycle" begin="0" end="3600" vehsPerHour="61.67" departLane="best" departPos="random" departSpeed="0" from="34241530#0" to="198876043#2"/>
  <flow id="motorcycle_34241530#0_28231434_0008128c" type="motorcycle" begin="0" end="3600" vehsPerHour="51.46" departLane="best" departPos="random" departSpeed="0" from="34241530#0" to="28231434"/>
  <flow id="motorcycle_34241530#0_23241821#0_0008128c" type="motorcycle" begin="0" end="3600" vehsPerHour="47.77" departLane="best" departPos="random" departSpeed="0" from="34241530#0" to="23241821#0"/>
  <flow id="truck_34241530#0_198876042#0_0008128c" type="truck" begin="0" end="3600" vehsPerHour="11.71" departLane="best" departPos="random" departSpeed="0" from="34241530#0" to="198876042#0"/>
</routes>
