<routes>
<vType id="car" vClass="passenger" accel="2.6" decel="4.5" sigma="0.5" length="5.0" maxSpeed="13.9"/>
<vType id="motorcycle" vClass="motorcycle" accel="3.0" decel="5.0" sigma="0.5" length="2.0" maxSpeed="14.0"/>
<vType id="truck" vClass="truck" accel="1.2" decel="3.5" sigma="0.5" length="12.0" maxSpeed="10.0"/>

  <flow id="car_222682222#1_193253427#0_00052659" type="car" begin="0" end="3600" vehsPerHour="63.27" departLane="best" departPos="random" departSpeed="0" from="222682222#1" to="193253427#0"/>
  <flow id="car_222682222#1_198876043#0_00052659" type="car" begin="0" end="3600" vehsPerHour="50.97" departLane="best" departPos="random" departSpeed="0" from="222682222#1" to="198876043#0"/>
  <flow id="car_222682222#1_28231434_00052659" type="car" begin="0" end="3600" vehsPerHour="52.78" departLane="best" departPos="random" departSpeed="0" from="222682222#1" to="28231434"/>
  <flow id="car_222682222#1_23241821#0_00052659" type="car" begin="0" end="3600" vehsPerHour="42.40" departLane="best" departPos="random" departSpeed="0" from="222682222#1" to="23241821#0"/>
  <flow id="car_222682222#1_198876042#0_00052659" type="car" begin="0" end="3600" vehsPerHour="34.13" departLane="best" departPos="random" departSpeed="0" from="222682222#1" to="198876042#0"/>
  <flow id="motorcycle_222682222#1_193253427#0_00052659" type="motorcycle" begin="0" end="3600" vehsPerHour="169.98" departLane="best" departPos="random" departSpeed="0" from="222682222#1" to="193253427#0"/>
  <flow id="motorcycle_222682222#1_198876043#0_00052659" type="motorcycle" begin="0" end="3600" vehsPerHour="161.36" departLane="best" departPos="random" departSpeed="0" from="222682222#1" to="198876043#0"/>
  <flow id="motorcycle_222682222#1_28231434_00052659" type="motorcycle" begin="0" end="3600" vehsPerHour="147.38" departLane="best" departPos="random" departSpeed="0" from="222682222#1" to="28231434"/>
  <flow id="motorcycle_222682222#1_23241821#0_00052659" type="motorcycle" begin="0" end="3600" vehsPerHour="117.83" departLane="best" departPos="random" departSpeed="0" from="222682222#1" to="23241821#0"/>
  <flow id="motorcycle_222682222#1_198876042#0_00052659" type="motorcycle" begin="0" end="3600" vehsPerHour="96.67" departLane="best" departPos="random" departSpeed="0" from="222682222#1" to="198876042#0"/>
  <flow id="car_193253433#2_198876043#0_00052659" type="car" begin="0" end="3600" vehsPerHour="42.19" departLane="best" departPos="random" departSpeed="0" from="193253433#2" to="198876043#0"/>
  <flow id="car_193253433#2_28231434_00052659" type="car" begin="0" end="3600" vehsPerHour="32.55" departLane="best" departPos="random" departSpeed="0" from="193253433#2" to="28231434"/>
  <flow id="car_193253433#2_23241821#0_00052659" type="car" begin="0" end="3600" vehsPerHour="34.67" departLane="best" departPos="random" departSpeed="0" from="193253433#2" to="23241821#0"/>
  <flow id="car_193253433#2_198876042#0_00052659" type="car" begin="0" end="3600" vehsPerHour="26.87" departLane="best" departPos="random" departSpeed="0" from="193253433#2" to="198876042#0"/>
  <flow id="car_193253433#2_193253427#0_00052659" type="car" begin="0" end="3600" vehsPerHour="22.72" departLane="best" departPos="random" departSpeed="0" from="193253433#2" to="193253427#0"/>
  <flow id="motorcycle_193253433#2_198876043#0_00052659" type="motorcycle" begin="0" end="3600" vehsPerHour="114.88" departLane="best" departPos="random" departSpeed="0" from="193253433#2" to="198876043#0"/>
  <flow id="motorcycle_193253433#2_28231434_00052659" type="motorcycle" begin="0" end="3600" vehsPerHour="98.61" departLane="best" departPos="random" departSpeed="0" from="193253433#2" to="28231434"/>
  <flow id="motorcycle_193253433#2_23241821#0_00052659" type="motorcycle" begin="0" end="3600" vehsPerHour="93.99" departLane="best" departPos="random" departSpeed="0" from="193253433#2" to="23241821#0"/>
  <flow id="motorcycle_193253433#2_198876042#0_00052659" type="motorcycle" begin="0" end="3600" vehsPerHour="81.12" departLane="best" departPos="random" departSpeed="0" from="193253433#2" to="198876042#0"/>
  <flow id="motorcycle_193253433#2_193253427#0_00052659" type="motorcycle" begin="0" end="3600" vehsPerHour="68.80" departLane="best" departPos="random" departSpeed="0" from="193253433#2" to="193253427#0"/>
  <flow id="car_198876045#1_28231434_00052659" type="car" begin="0" end="3600" vehsPerHour="33.40" departLane="best" departPos="random" departSpeed="0" from="198876045#1" to="28231434"/>
  <flow id="car_198876045#1_23241821#0_00052659" type="car" begin="0" end="3600" vehsPerHour="30.51" departLane="best" departPos="random" departSpeed="0" from="198876045#1" to="23241821#0"/>
  <flow id="car_198876045#1_198876042#0_00052659" type="car" begin="0" end="3600" vehsPerHour="26.39" departLane="best" departPos="random" departSpeed="0" from="198876045#1" to="198876042#0"/>
  <flow id="car_198876045#1_193253427#0_00052659" type="car" begin="0" end="3600" vehsPerHour="23.60" departLane="best" departPos="random" departSpeed="0" from="198876045#1" to="193253427#0"/>
  <flow id="car_198876045#1_198876043#2_00052659" type="car" begin="0" end="3600" vehsPerHour="21.22" departLane="best" departPos="random" departSpeed="0" from="198876045#1" to="198876043#2"/>
  <flow id="motorcycle_198876045#1_28231434_00052659" type="motorcycle" begin="0" end="3600" vehsPerHour="103.84" departLane="best" departPos="random" departSpeed="0" from="198876045#1" to="28231434"/>
  <flow id="motorcycle_198876045#1_23241821#0_00052659" type="motorcycle" begin="0" end="3600" vehsPerHour="86.54" departLane="best" departPos="random" departSpeed="0" from="198876045#1" to="23241821#0"/>
  <flow id="motorcycle_198876045#1_198876042#0_00052659" type="motorcycle" begin="0" end="3600" vehsPerHour="78.69" departLane="best" departPos="random" departSpeed="0" from="198876045#1" to="198876042#0"/>
  <flow id="motorcycle_198876045#1_193253427#0_00052659" type="motorcycle" begin="0" end="3600" vehsPerHour="76.99" departLane="best" departPos="random" departSpeed="0" from="198876045#1" to="193253427#0"/>
  <flow id="motorcycle_198876045#1_198876043#2_00052659" type="motorcycle" begin="0" end="3600" vehsPerHour="66.70" departLane="best" departPos="random" departSpeed="0" from="198876045#1" to="198876043#2"/>
  <flow id="car_-28231434_23241821#0_00052659" type="car" begin="0" end="3600" vehsPerHour="24.25" departLane="best" departPos="random" departSpeed="0" from="-28231434" to="23241821#0"/>
  <flow id="car_-28231434_198876042#0_00052659" type="car" begin="0" end="3600" vehsPerHour="19.71" departLane="best" departPos="random" departSpeed="0" from="-28231434" to="198876042#0"/>
  <flow id="car_-28231434_193253427#0_00052659" type="car" begin="0" end="3600" vehsPerHour="17.08" departLane="best" departPos="random" departSpeed="0" from="-28231434" to="193253427#0"/>
  <flow id="car_-28231434_198876043#2_00052659" type="car" begin="0" end="3600" vehsPerHour="16.42" departLane="best" departPos="random" departSpeed="0" from="-28231434" to="198876043#2"/>
  <flow id="car_-28231434_28231434_00052659" type="car" begin="0" end="3600" vehsPerHour="13.31" departLane="best" departPos="random" departSpeed="0" from="-28231434" to="28231434"/>
  <flow id="motorcycle_-28231434_23241821#0_00052659" type="motorcycle" begin="0" end="3600" vehsPerHour="64.72" departLane="best" departPos="random" departSpeed="0" from="-28231434" to="23241821#0"/>
  <flow id="motorcycle_-28231434_198876042#0_00052659" type="motorcycle" begin="0" end="3600" vehsPerHour="60.12" departLane="best" departPos="random" departSpeed="0" from="-28231434" to="198876042#0"/>
  <flow id="motorcycle_-28231434_193253427#0_00052659" type="motorcycle" begin="0" end="3600" vehsPerHour="52.59" departLane="best" departPos="random" departSpeed="0" from="-28231434" to="193253427#0"/>
  <flow id="motorcycle_-28231434_198876043#2_00052659" type="motorcycle" begin="0" end="3600" vehsPerHour="49.53" departLane="best" departPos="random" departSpeed="0" from="-28231434" to="198876043#2"/>
  <flow id="motorcycle_-28231434_28231434_00052659" type="motorcycle" begin="0" end="3600" vehsPerHour="41.84" departLane="best" departPos="random" departSpeed="0" from="-28231434" to="28231434"/>
  <flow id="car_-55029244#0_198876042#0_00052659" type="car" begin="0" end="3600" vehsPerHour="28.05" departLane="best" departPos="random" departSpeed="0" from="-55029244#0" to="198876042#0"/>
  <flow id="car_-55029244#0_193253427#0_00052659" type="car" begin="0" end="3600" vehsPerHour="23.32" departLane="best" departPos="random" departSpeed="0" from="-55029244#0" to="193253427#0"/>
  <flow id="car_-55029244#0_198876043#2_00052659" type="car" begin="0" end="3600" vehsPerHour="19.94" departLane="best" departPos="random" departSpeed="0" from="-55029244#0" to="198876043#2"/>
  <flow id="car_-55029244#0_28231434_00052659" type="car" begin="0" end="3600" vehsPerHour="16.98" departLane="best" departPos="random" departSpeed="0" from="-55029244#0" to="28231434"/>
  <flow id="car_-55029244#0_23241821#0_00052659" type="car" begin="0" end="3600" vehsPerHour="13.75" departLane="best" departPos="random" departSpeed="0" from="-55029244#0" to="23241821#0"/>
  <flow id="motorcycle_-55029244#0_198876042#0_00052659" type="motorcycle" begin="0" end="3600" vehsPerHour="77.36" departLane="best" departPos="random" departSpeed="0" from="-55029244#0" to="198876042#0"/>
  <flow id="motorcycle_-55029244#0_193253427#0_00052659" type="motorcycle" begin="0" end="3600" vehsPerHour="68.27" departLane="best" departPos="random" departSpeed="0" from="-55029244#0" to="193253427#0"/>
  <flow id="motorcycle_-55029244#0_198876043#2_00052659" type="motorcycle" begin="0" end="3600" vehsPerHour="61.39" departLane="best" departPos="random" departSpeed="0" from="-55029244#0" to="198876043#2"/>
  <flow id="motorcycle_-55029244#0_28231434_00052659" type="motorcycle" begin="0" end="3600" vehsPerHour="53.06" departLane="best" departPos="random" departSpeed="0" from="-55029244#0" to="28231434"/>
  <flow id="motorcycle_-55029244#0_23241821#0_00052659" type="motorcycle" begin="0" end="3600" vehsPerHour="46.70" departLane="best" departPos="random" departSpeed="0" from="-55029244#0" to="23241821#0"/>
  <flow id="car_34241530#0_198876042#0_00052659" type="car" begin="0" end="3600" vehsPerHour="27.80" departLane="best" departPos="random" departSpeed="0" from="34241530#0" to="198876042#0"/>
  <flow id="car_34241530#0_193253427#0_00052659" type="car" begin="0" end="3600" vehsPerHour="24.31" departLane="best" departPos="random" departSpeed="0" from="34241530#0" to="193253427#0"/>
  <flow id="car_34241530#0_198876043#2_00052659" type="car" begin="0" end="3600" vehsPerHour="20.36" departLane="best" departPos="random" departSpeed="0" from="34241530#0" to="198876043#2"/>
  <flow id="car_34241530#0_28231434_00052659" type="car" begin="0" end="3600" vehsPerHour="16.97" departLane="best" departPos="random" departSpeed="0" from="34241530#0" to="28231434"/>
  <flow id="car_34241530#0_23241821#0_00052659" type="car" begin="0" end="3600" vehsPerHour="13.45" departLane="best" departPos="random" departSpeed="0" from="34241530#0" to="23241821#0"/>
  <flow id="motorcycle_34241530#0_198876042#0_00052659" type="motorcycle" begin="0" end="3600" vehsPerHour="82.43" departLane="best" departPos="random" departSpeed="0" from="34241530#0" to="198876042#0"/>
  <flow id="motorcycle_34241530#0_193253427#0_00052659" type="motorcycle" begin="0" end="3600" vehsPerHour="69.46" departLane="best" departPos="random" departSpeed="0" from="34241530#0" to="193253427#0"/>
  <flow id="motorcycle_34241530#0_198876043#2_00052659" type="motorcycle" begin="0" end="3600" vehsPerHour="57.95" departLane="best" departPos="random" departSpeed="0" from="34241530#0" to="198876043#2"/>
  <flow id="motorcycle_34241530#0_28231434_00052659" type="motorcycle" begin="0" end="3600" vehsPerHour="56.40" departLane="best" departPos="random" departSpeed="0" from="34241530#0" to="28231434"/>
  <flow id="motorcycle_34241530#0_23241821#0_00052659" type="motorcycle" begin="0" end="3600" vehsPerHour="45.44" departLane="best" departPos="random" departSpeed="0" from="34241530#0" to="23241821#0"/>
  <flow id="truck_34241530#0_198876042#0_00052659" type="truck" begin="0" end="3600" vehsPerHour="11.24" departLane="best" departPos="random" departSpeed="0" from="34241530#0" to="198876042#0"/>
</routes>
