<routes>
<vType id="car" vClass="passenger" accel="2.6" decel="4.5" sigma="0.5" length="5.0" maxSpeed="13.9"/>
<vType id="motorcycle" vClass="motorcycle" accel="3.0" decel="5.0" sigma="0.5" length="2.0" maxSpeed="14.0"/>
<vType id="truck" vClass="truck" accel="1.2" decel="3.5" sigma="0.5" length="12.0" maxSpeed="10.0"/>

  <flow id="car_222682222#1_193253427#0_000cf65e" type="car" begin="0" end="3600" vehsPerHour="61.73" departLane="best" departPos="random" departSpeed="0" from="222682222#1" to="193253427#0"/>
  <flow id="car_222682222#1_198876043#0_000cf65e" type="car" begin="0" end="3600" vehsPerHour="51.98" departLane="best" departPos="random" departSpeed="0" from="222682222#1" to="198876043#0"/>
  <flow id="car_222682222#1_28231434_000cf65e" type="car" begin="0" end="3600" vehsPerHour="51.46" departLane="best" departPos="random" departSpeed="0" from="222682222#1" to="28231434"/>
  <flow id="car_222682222#1_23241821#0_000cf65e" type="car" begin="0" end="3600" vehsPerHour="41.49" departLane="best" departPos="random" departSpeed="0" from="222682222#1" to="23241821#0"/>
  <flow id="car_222682222#1_198876042#0_000cf65e" type="car" begin="0" end="3600" vehsPerHour="32.34" departLane="best" departPos="random" departSpeed="0" from="222682222#1" to="198876042#0"/>
  <flow id="motorcycle_222682222#1_193253427#0_000cf65e" type="motorcycle" begin="0" end="3600" vehsPerHour="178.67" departLane="best" departPos="random" departSpeed="0" from="222682222#1" to="193253427#0"/>
  <flow id="motorcycle_222682222#1_198876043#0_000cf65e" type="motorcycle" begin="0" end="3600" vehsPerHour="162.36" departLane="best" departPos="random" departSpeed="0" from="222682222#1" to="198876043#0"/>
  <flow id="motorcycle_222682222#1_28231434_000cf65e" type="motorcycle" begin="0" end="3600" vehsPerHour="144.84" departLane="best" departPos="random" departSpeed="0" from="222682222#1" to="28231434"/>
  <flow id="motorcycle_222682222#1_23241821#0_000cf65e" type="motorcycle" begin="0" end="3600" vehsPerHour="114.74" departLane="best" departPos="random" departSpeed="0" from="222682222#1" to="23241821#0"/>
  <flow id="motorcycle_222682222#1_198876042#0_000cf65e" type="motorcycle" begin="0" end="3600" vehsPerHour="99.31" departLane="best" departPos="random" departSpeed="0" from="222682222#1" to="198876042#0"/>
  <flow id="car_193253433#2_198876043#0_000cf65e" type="car" begin="0" end="3600" vehsPerHour="40.34" departLane="best" departPos="random" departSpeed="0" from="193253433#2" to="198876043#0"/>
  <flow id="car_193253433#2_28231434_000cf65e" type="car" begin="0" end="3600" vehsPerHour="34.02" departLane="best" departPos="random" departSpeed="0" from="193253433#2" to="28231434"/>
  <flow id="car_193253433#2_23241821#0_000cf65e" type="car" begin="0" end="3600" vehsPerHour="33.15" departLane="best" departPos="random" departSpeed="0" from="193253433#2" to="23241821#0"/>
  <flow id="car_193253433#2_198876042#0_000cf65e" type="car" begin="0" end="3600" vehsPerHour="26.06" departLane="best" departPos="random" departSpeed="0" from="193253433#2" to="198876042#0"/>
  <flow id="car_193253433#2_193253427#0_000cf65e" type="car" begin="0" end="3600" vehsPerHour="23.79" departLane="best" departPos="random" departSpeed="0" from="193253433#2" to="193253427#0"/>
  <flow id="motorcycle_193253433#2_198876043#0_000cf65e" type="motorcycle" begin="0" end="3600" vehsPerHour="111.88" departLane="best" departPos="random" departSpeed="0" from="193253433#2" to="198876043#0"/>
  <flow id="motorcycle_193253433#2_28231434_000cf65e" type="motorcycle" begin="0" end="3600" vehsPerHour="96.74" departLane="best" departPos="random" departSpeed="0" from="193253433#2" to="28231434"/>
  <flow id="motorcycle_193253433#2_23241821#0_000cf65e" type="motorcycle" begin="0" end="3600" vehsPerHour="91.43" departLane="best" departPos="random" departSpeed="0" from="193253433#2" to="23241821#0"/>
  <flow id="motorcycle_193253433#2_198876042#0_000cf65e" type="motorcycle" begin="0" end="3600" vehsPerHour="82.67" departLane="best" departPos="random" departSpeed="0" from="193253433#2" to="198876042#0"/>
  <flow id="motorcycle_193253433#2_193253427#0_000cf65e" type="motorcycle" begin="0" end="3600" vehsPerHour="67.04" departLane="best" departPos="random" departSpeed="0" from="193253433#2" to="193253427#0"/>
  <flow id="car_198876045#1_28231434_000cf65e" type="car" begin="0" end="3600" vehsPerHour="33.02" departLane="best" departPos="random" departSpeed="0" from="198876045#1" to="28231434"/>
  <flow id="car_198876045#1_23241821#0_000cf65e" type="car" begin="0" end="3600" vehsPerHour="31.67" departLane="best" departPos="random" departSpeed="0" from="198876045#1" to="23241821#0"/>
  <flow id="car_198876045#1_198876042#0_000cf65e" type="car" begin="0" end="3600" vehsPerHour="26.27" departLane="best" departPos="random" departSpeed="0" from="198876045#1" to="198876042#0"/>
  <flow id="car_198876045#1_193253427#0_000cf65e" type="car" begin="0" end="3600" vehsPerHour="24.74" departLane="best" departPos="random" departSpeed="0" from="198876045#1" to="193253427#0"/>
  <flow id="car_198876045#1_198876043#2_000cf65e" type="car" begin="0" end="3600" vehsPerHour="19.38" departLane="best" departPos="random" departSpeed="0" from="198876045#1" to="198876043#2"/>
  <flow id="motorcycle_198876045#1_28231434_000cf65e" type="motorcycle" begin="0" end="3600" vehsPerHour="99.97" departLane="best" departPos="random" departSpeed="0" from="198876045#1" to="28231434"/>
  <flow id="motorcycle_198876045#1_23241821#0_000cf65e" type="motorcycle" begin="0" end="3600" vehsPerHour="90.51" departLane="best" departPos="random" departSpeed="0" from="198876045#1" to="23241821#0"/>
  <flow id="motorcycle_198876045#1_198876042#0_000cf65e" type="motorcycle" begin="0" end="3600" vehsPerHour="84.01" departLane="best" departPos="random" departSpeed="0" from="198876045#1" to="198876042#0"/>
  <flow id="motorcycle_198876045#1_193253427#0_000cf65e" type="motorcycle" begin="0" end="3600" vehsPerHour="73.83" departLane="best" departPos="random" departSpeed="0" from="198876045#1" to="193253427#0"/>
  <flow id="motorcycle_198876045#1_198876043#2_000cf65e" type="motorcycle" begin="0" end="3600" vehsPerHour="70.24" departLane="best" departPos="random" departSpeed="0" from="198876045#1" to="198876043#2"/>
  <flow id="car_-28231434_23241821#0_000cf65e" type="car" begin="0" end="3600" vehsPerHour="22.92" departLane="best" departPos="random" departSpeed="0" from="-28231434" to="23241821#0"/>
  <flow id="car_-28231434_198876042#0_000cf65e" type="car" begin="0" end="3600" vehsPerHour="19.68" departLane="best" departPos="random" departSpeed="0" from="-28231434" to="198876042#0"/>
  <flow id="car_-28231434_193253427#0_000cf65e" type="car" begin="0" end="3600" vehsPerHour="16.89" departLane="best" departPos="random" departSpeed="0" from="-28231434" to="193253427#0"/>
  <flow id="car_-28231434_198876043#2_000cf65e" type="car" begin="0" end="3600" vehsPerHour="17.06" departLane="best" departPos="random" departSpeed="0" from="-28231434" to="198876043#2"/>
  <flow id="car_-28231434_28231434_000cf65e" type="car" begin="0" end="3600" vehsPerHour="13.03" departLane="best" departPos="random" departSpeed="0" from="-28231434" to="28231434"/>
  <flow id="motorcycle_-28231434_23241821#0_000cf65e" type="motorcycle" begin="0" end="3600" vehsPerHour="69.48" departLane="best" departPos="random" departSpeed="0" from="-28231434" to="23241821#0"/>
  <flow id="motorcycle_-28231434_198876042#0_000cf65e" type="motorcycle" begin="0" end="3600" vehsPerHour="63.50" departLane="best" departPos="random" departSpeed="0" from="-28231434" to="198876042#0"/>
  <flow id="motorcycle_-28231434_193253427#0_000cf65e" type="motorcycle" begin="0" end="3600" vehsPerHour="53.19" departLane="best" departPos="random" departSpeed="0" from="-28231434" to="193253427#0"/>
  <flow id="motorcycle_-28231434_198876043#2_000cf65e" type="motorcycle" begin="0" end="3600" vehsPerHour="46.26" departLane="best" departPos="random" departSpeed="0" from="-28231434" to="198876043#2"/>
  <flow id="motorcycle_-28231434_28231434_000cf65e" type="motorcycle" begin="0" end="3600" vehsPerHour="38.96" departLane="best" departPos="random" departSpeed="0" from="-28231434" to="28231434"/>
  <flow id="car_-55029244#0_198876042#0_000cf65e" type="car" begin="0" end="3600" vehsPerHour="28.24" departLane="best" departPos="random" departSpeed="0" from="-55029244#0" to="198876042#0"/>
  <flow id="car_-55029244#0_193253427#0_000cf65e" type="car" begin="0" end="3600" vehsPerHour="22.56" departLane="best" departPos="random" departSpeed="0" from="-55029244#0" to="193253427#0"/>
  <flow id="car_-55029244#0_198876043#2_000cf65e" type="car" begin="0" end="3600" vehsPerHour="19.75" departLane="best" departPos="random" departSpeed="0" from="-55029244#0" to="198876043#2"/>
  <flow id="car_-55029244#0_28231434_000cf65e" type="car" begin="0" end="3600" vehsPerHour="16.96" departLane="best" departPos="random" departSpeed="0" from="-55029244#0" to="28231434"/>
  <flow id="car_-55029244#0_23241821#0_000cf65e" type="car" begin="0" end="3600" vehsPerHour="12.87" departLane="best" departPos="random" departSpeed="0" from="-55029244#0" to="23241821#0"/>
  <flow id="motorcycle_-55029244#0_198876042#0_000cf65e" type="motorcycle" begin="0" end="3600" vehsPerHour="78.56" departLane="best" departPos="random" departSpeed="0" from="-55029244#0" to="198876042#0"/>
  <flow id="motorcycle_-55029244#0_193253427#0_000cf65e" type="motorcycle" begin="0" end="3600" vehsPerHour="67.82" departLane="best" departPos="random" departSpeed="0" from="-55029244#0" to="193253427#0"/>
  <flow id="motorcycle_-55029244#0_198876043#2_000cf65e" type="motorcycle" begin="0" end="3600" vehsPerHour="60.78" departLane="best" departPos="random" departSpeed="0" from="-55029244#0" to="198876043#2"/>
  <flow id="motorcycle_-55029244#0_28231434_000cf65e" type="motorcycle" begin="0" end="3600" vehsPerHour="56.55" departLane="best" departPos="random" departSpeed="0" from="-55029244#0" to="28231434"/>
  <flow id="motorcycle_-55029244#0_23241821#0_000cf65e" type="motorcycle" begin="0" end="3600" vehsPerHour="47.59" departLane="best" departPos="random" departSpeed="0" from="-55029244#0" to="23241821#0"/>
  <flow id="car_34241530#0_198876042#0_000cf65e" type="car" begin="0" end="3600" vehsPerHour="25.70" departLane="best" departPos="random" departSpeed="0" from="34241530#0" to="198876042#0"/>
  <flow id="car_34241530#0_193253427#0_000cf65e" type="car" begin="0" end="3600" vehsPerHour="23.98" departLane="best" departPos="random" departSpeed="0" from="34241530#0" to="193253427#0"/>
  <flow id="car_34241530#0_198876043#2_000cf65e" type="car" begin="0" end="3600" vehsPerHour="20.23" departLane="best" departPos="random" departSpeed="0" from="34241530#0" to="198876043#2"/>
  <flow id="car_34241530#0_28231434_000cf65e" type="car" begin="0" end="3600" vehsPerHour="17.52" departLane="best" departPos="random" departSpeed="0" from="34241530#0" to="28231434"/>
  <flow id="car_34241530#0_23241821#0_000cf65e" type="car" begin="0" end="3600" vehsPerHour="13.64" departLane="best" departPos="random" departSpeed="0" from="34241530#0" to="23241821#0"/>
  <flow id="motorcycle_34241530#0_198876042#0_000cf65e" type="motorcycle" begin="0" end="3600" vehsPerHour="78.53" departLane="best" departPos="random" departSpeed="0" from="34241530#0" to="198876042#0"/>
  <flow id="motorcycle_34241530#0_193253427#0_000cf65e" type="motorcycle" begin="0" end="3600" vehsPerHour="65.34" departLane="best" departPos="random" departSpeed="0" from="34241530#0" to="193253427#0"/>
  <flow id="motorcycle_34241530#0_198876043#2_000cf65e" type="motorcycle" begin="0" end="3600" vehsPerHour="58.14" departLane="best" departPos="random" departSpeed="0" from="34241530#0" to="198876043#2"/>
  <flow id="motorcycle_34241530#0_28231434_000cf65e" type="motorcycle" begin="0" end="3600" vehsPerHour="55.47" departLane="best" departPos="random" departSpeed="0" from="34241530#0" to="28231434"/>
  <flow id="motorcycle_34241530#0_23241821#0_000cf65e" type="motorcycle" begin="0" end="3600" vehsPerHour="49.13" departLane="best" departPos="random" departSpeed="0" from="34241530#0" to="23241821#0"/>
  <flow id="truck_34241530#0_198876042#0_000cf65e" type="truck" begin="0" end="3600" vehsPerHour="11.79" departLane="best" departPos="random" departSpeed="0" from="34241530#0" to="198876042#0"/>
</routes>
