<routes>
<vType id="car" vClass="passenger" accel="2.6" decel="4.5" sigma="0.5" length="5.0" maxSpeed="13.9"/>
<vType id="motorcycle" vClass="motorcycle" accel="3.0" decel="5.0" sigma="0.5" length="2.0" maxSpeed="14.0"/>
<vType id="truck" vClass="truck" accel="1.2" decel="3.5" sigma="0.5" length="12.0" maxSpeed="10.0"/>

  <flow id="car_222682222#1_193253427#0_000adee2" type="car" begin="0" end="3600" vehsPerHour="62.03" departLane="best" departPos="random" departSpeed="0" from="222682222#1" to="193253427#0"/>
  <flow id="car_222682222#1_198876043#0_000adee2" type="car" begin="0" end="3600" vehsPerHour="52.43" departLane="best" departPos="random" departSpeed="0" from="222682222#1" to="198876043#0"/>
  <flow id="car_222682222#1_28231434_000adee2" type="car" begin="0" end="3600" vehsPerHour="52.38" departLane="best" departPos="random" departSpeed="0" from="222682222#1" to="28231434"/>
  <flow id="car_222682222#1_23241821#0_000adee2" type="car" begin="0" end="3600" vehsPerHour="38.85" departLane="best" departPos="random" departSpeed="0" from="222682222#1" to="23241821#0"/>
  <flow id="car_222682222#1_198876042#0_000adee2" type="car" begin="0" end="3600" vehsPerHour="35.04" departLane="best" departPos="random" departSpeed="0" from="222682222#1" to="198876042#0"/>
  <flow id="motorcycle_222682222#1_193253427#0_000adee2" type="motorcycle" begin="0" end="3600" vehsPerHour="183.45" departLane="best" departPos="random" departSpeed="0" from="222682222#1" to="193253427#0"/>
  <flow id="motorcycle_222682222#1_198876043#0_000adee2" type="motorcycle" begin="0" end="3600" vehsPerHour="158.17" departLane="best" departPos="random" departSpeed="0" from="222682222#1" to="198876043#0"/>
  <flow id="motorcycle_222682222#1_28231434_000adee2" type="motorcycle" begin="0" end="3600" vehsPerHour="140.82" departLane="best" departPos="random" departSpeed="0" from="222682222#1" to="28231434"/>
  <flow id="motorcycle_222682222#1_23241821#0_000adee2" type="motorcycle" begin="0" end="3600" vehsPerHour="110.36" departLane="best" departPos="random" departSpeed="0" from="222682222#1" to="23241821#0"/>
  <flow id="motorcycle_222682222#1_198876042#0_000adee2" type="motorcycle" begin="0" end="3600" vehsPerHour="104.34" departLane="best" departPos="random" departSpeed="0" from="222682222#1" to="198876042#0"/>
  <flow id="car_193253433#2_198876043#0_000adee2" type="car" begin="0" end="3600" vehsPerHour="40.04" departLane="best" departPos="random" departSpeed="0" from="193253433#2" to="198876043#0"/>
  <flow id="car_193253433#2_28231434_000adee2" type="car" begin="0" end="3600" vehsPerHour="33.03" departLane="best" departPos="random" departSpeed="0" from="193253433#2" to="28231434"/>
  <flow id="car_193253433#2_23241821#0_000adee2" type="car" begin="0" end="3600" vehsPerHour="32.18" departLane="best" departPos="random" departSpeed="0" from="193253433#2" to="23241821#0"/>
  <flow id="car_193253433#2_198876042#0_000adee2" type="car" begin="0" end="3600" vehsPerHour="27.04" departLane="best" departPos="random" departSpeed="0" from="193253433#2" to="198876042#0"/>
  <flow id="car_193253433#2_193253427#0_000adee2" type="car" begin="0" end="3600" vehsPerHour="23.39" departLane="best" departPos="random" departSpeed="0" from="193253433#2" to="193253427#0"/>
  <flow id="motorcycle_193253433#2_198876043#0_000adee2" type="motorcycle" begin="0" end="3600" vehsPerHour="115.13" departLane="best" departPos="random" departSpeed="0" from="193253433#2" to="198876043#0"/>
  <flow id="motorcycle_193253433#2_28231434_000adee2" type="motorcycle" begin="0" end="3600" vehsPerHour="97.83" departLane="best" departPos="random" departSpeed="0" from="193253433#2" to="28231434"/>
  <flow id="motorcycle_193253433#2_23241821#0_000adee2" type="motorcycle" begin="0" end="3600" vehsPerHour="95.43" departLane="best" departPos="random" departSpeed="0" from="193253433#2" to="23241821#0"/>
  <flow id="motorcycle_193253433#2_198876042#0_000adee2" type="motorcycle" begin="0" end="3600" vehsPerHour="77.52" departLane="best" departPos="random" departSpeed="0" from="193253433#2" to="198876042#0"/>
  <flow id="motorcycle_193253433#2_193253427#0_000adee2" type="motorcycle" begin="0" end="3600" vehsPerHour="68.83" departLane="best" departPos="random" departSpeed="0" from="193253433#2" to="193253427#0"/>
  <flow id="car_198876045#1_28231434_000adee2" type="car" begin="0" end="3600" vehsPerHour="33.89" departLane="best" departPos="random" departSpeed="0" from="198876045#1" to="28231434"/>
  <flow id="car_198876045#1_23241821#0_000adee2" type="car" begin="0" end="3600" vehsPerHour="29.43" departLane="best" departPos="random" departSpeed="0" from="198876045#1" to="23241821#0"/>
  <flow id="car_198876045#1_198876042#0_000adee2" type="car" begin="0" end="3600" vehsPerHour="27.59" departLane="best" departPos="random" departSpeed="0" from="198876045#1" to="198876042#0"/>
  <flow id="car_198876045#1_193253427#0_000adee2" type="car" begin="0" end="3600" vehsPerHour="24.01" departLane="best" departPos="random" departSpeed="0" from="198876045#1" to="193253427#0"/>
  <flow id="car_198876045#1_198876043#2_000adee2" type="car" begin="0" end="3600" vehsPerHour="21.21" departLane="best" departPos="random" departSpeed="0" from="198876045#1" to="198876043#2"/>
  <flow id="motorcycle_198876045#1_28231434_000adee2" type="motorcycle" begin="0" end="3600" vehsPerHour="96.68" departLane="best" departPos="random" departSpeed="0" from="198876045#1" to="28231434"/>
  <flow id="motorcycle_198876045#1_23241821#0_000adee2" type="motorcycle" begin="0" end="3600" vehsPerHour="85.18" departLane="best" departPos="random" departSpeed="0" from="198876045#1" to="23241821#0"/>
  <flow id="motorcycle_198876045#1_198876042#0_000adee2" type="motorcycle" begin="0" end="3600" vehsPerHour="81.43" departLane="best" departPos="random" departSpeed="0" from="198876045#1" to="198876042#0"/>
  <flow id="motorcycle_198876045#1_193253427#0_000adee2" type="motorcycle" begin="0" end="3600" vehsPerHour="76.17" departLane="best" departPos="random" departSpeed="0" from="198876045#1" to="193253427#0"/>
  <flow id="motorcycle_198876045#1_198876043#2_000adee2" type="motorcycle" begin="0" end="3600" vehsPerHour="69.79" departLane="best" departPos="random" departSpeed="0" from="198876045#1" to="198876043#2"/>
  <flow id="car_-28231434_23241821#0_000adee2" type="car" begin="0" end="3600" vehsPerHour="22.89" departLane="best" departPos="random" departSpeed="0" from="-28231434" to="23241821#0"/>
  <flow id="car_-28231434_198876042#0_000adee2" type="car" begin="0" end="3600" vehsPerHour="20.69" departLane="best" departPos="random" departSpeed="0" from="-28231434" to="198876042#0"/>
  <flow id="car_-28231434_193253427#0_000adee2" type="car" begin="0" end="3600" vehsPerHour="16.35" departLane="best" departPos="random" departSpeed="0" from="-28231434" to="193253427#0"/>
  <flow id="car_-28231434_198876043#2_000adee2" type="car" begin="0" end="3600" vehsPerHour="17.68" departLane="best" departPos="random" departSpeed="0" from="-28231434" to="198876043#2"/>
  <flow id="car_-28231434_28231434_000adee2" type="car" begin="0" end="3600" vehsPerHour="13.52" departLane="best" departPos="random" departSpeed="0" from="-28231434" to="28231434"/>
  <flow id="motorcycle_-28231434_23241821#0_000adee2" type="motorcycle" begin="0" end="3600" vehsPerHour="70.30" departLane="best" departPos="random" departSpeed="0" from="-28231434" to="23241821#0"/>
  <flow id="motorcycle_-28231434_198876042#0_000adee2" type="motorcycle" begin="0" end="3600" vehsPerHour="58.84" departLane="best" departPos="random" departSpeed="0" from="-28231434" to="198876042#0"/>
  <flow id="motorcycle_-28231434_193253427#0_000adee2" type="motorcycle" begin="0" end="3600" vehsPerHour="52.59" departLane="best" departPos="random" departSpeed="0" from="-28231434" to="193253427#0"/>
  <flow id="motorcycle_-28231434_198876043#2_000adee2" type="motorcycle" begin="0" end="3600" vehsPerHour="45.46" departLane="best" departPos="random" departSpeed="0" from="-28231434" to="198876043#2"/>
  <flow id="motorcycle_-28231434_28231434_000adee2" type="motorcycle" begin="0" end="3600" vehsPerHour="41.95" departLane="best" departPos="random" departSpeed="0" from="-28231434" to="28231434"/>
  <flow id="car_-55029244#0_198876042#0_000adee2" type="car" begin="0" end="3600" vehsPerHour="26.77" departLane="best" departPos="random" departSpeed="0" from="-55029244#0" to="198876042#0"/>
  <flow id="car_-55029244#0_193253427#0_000adee2" type="car" begin="0" end="3600" vehsPerHour="24.69" departLane="best" departPos="random" departSpeed="0" from="-55029244#0" to="193253427#0"/>
  <flow id="car_-55029244#0_198876043#2_000adee2" type="car" begin="0" end="3600" vehsPerHour="19.40" departLane="best" departPos="random" departSpeed="0" from="-55029244#0" to="198876043#2"/>
  <flow id="car_-55029244#0_28231434_000adee2" type="car" begin="0" end="3600" vehsPerHour="17.23" departLane="best" departPos="random" departSpeed="0" from="-55029244#0" to="28231434"/>
  <flow id="car_-55029244#0_23241821#0_000adee2" type="car" begin="0" end="3600" vehsPerHour="12.93" departLane="best" departPos="random" departSpeed="0" from="-55029244#0" to="23241821#0"/>
  <flow id="motorcycle_-55029244#0_198876042#0_000adee2" type="motorcycle" begin="0" end="3600" vehsPerHour="77.96" departLane="best" departPos="random" departSpeed="0" from="-55029244#0" to="198876042#0"/>
  <flow id="motorcycle_-55029244#0_193253427#0_000adee2" type="motorcycle" begin="0" end="3600" vehsPerHour="68.78" departLane="best" departPos="random" departSpeed="0" from="-55029244#0" to="193253427#0"/>
  <flow id="motorcycle_-55029244#0_198876043#2_000adee2" type="motorcycle" begin="0" end="3600" vehsPerHour="58.46" departLane="best" departPos="random" departSpeed="0" from="-55029244#0" to="198876043#2"/>
  <flow id="motorcycle_-55029244#0_28231434_000adee2" type="motorcycle" begin="0" end="3600" vehsPerHour="54.57" departLane="best" departPos="random" departSpeed="0" from="-55029244#0" to="28231434"/>
  <flow id="motorcycle_-55029244#0_23241821#0_000adee2" type="motorcycle" begin="0" end="3600" vehsPerHour="48.09" departLane="best" departPos="random" departSpeed="0" from="-55029244#0" to="23241821#0"/>
  <flow id="car_34241530#0_198876042#0_000adee2" type="car" begin="0" end="3600" vehsPerHour="26.99" departLane="best" departPos="random" departSpeed="0" from="34241530#0" to="198876042#0"/>
  <flow id="car_34241530#0_193253427#0_000adee2" type="car" begin="0" end="3600" vehsPerHour="24.05" departLane="best" departPos="random" departSpeed="0" from="34241530#0" to="193253427#0"/>
  <flow id="car_34241530#0_198876043#2_000adee2" type="car" begin="0" end="3600" vehsPerHour="19.39" departLane="best" departPos="random" departSpeed="0" from="34241530#0" to="198876043#2"/>
  <flow id="car_34241530#0_28231434_000adee2" type="car" begin="0" end="3600" vehsPerHour="17.64" departLane="best" departPos="random" departSpeed="0" from="34241530#0" to="28231434"/>
  <flow id="car_34241530#0_23241821#0_000adee2" type="car" begin="0" end="3600" vehsPerHour="13.15" departLane="best" departPos="random" departSpeed="0" from="34241530#0" to="23241821#0"/>
  <flow id="motorcycle_34241530#0_198876042#0_000adee2" type="motorcycle" begin="0" end="3600" vehsPerHour="81.80" departLane="best" departPos="random" departSpeed="0" from="34241530#0" to="198876042#0"/>
  <flow id="motorcycle_34241530#0_193253427#0_000adee2" type="motorcycle" begin="0" end="3600" vehsPerHour="66.24" departLane="best" departPos="random" departSpeed="0" from="34241530#0" to="193253427#0"/>
  <flow id="motorcycle_34241530#0_198876043#2_000adee2" type="motorcycle" begin="0" end="3600" vehsPerHour="58.46" departLane="best" departPos="random" departSpeed="0" from="34241530#0" to="198876043#2"/>
  <flow id="motorcycle_34241530#0_28231434_000adee2" type="motorcycle" begin="0" end="3600" vehsPerHour="55.01" departLane="best" departPos="random" departSpeed="0" from="34241530#0" to="28231434"/>
  <flow id="motorcycle_34241530#0_23241821#0_000adee2" type="motorcycle" begin="0" end="3600" vehsPerHour="45.78" departLane="best" departPos="random" departSpeed="0" from="34241530#0" to="23241821#0"/>
  <flow id="truck_34241530#0_198876042#0_000adee2" type="truck" begin="0" end="3600" vehsPerHour="11.68" departLane="best" departPos="random" departSpeed="0" from="34241530#0" to="198876042#0"/>
</routes>
