<routes>
<vType id="car" vClass="passenger" accel="2.6" decel="4.5" sigma="0.5" length="5.0" maxSpeed="13.9"/>
<vType id="motorcycle" vClass="motorcycle" accel="3.0" decel="5.0" sigma="0.5" length="2.0" maxSpeed="14.0"/>
<vType id="truck" vClass="truck" accel="1.2" decel="3.5" sigma="0.5" length="12.0" maxSpeed="10.0"/>

  <flow id="car_222682222#1_193253427#0_0007f0d1" type="car" begin="0" end="3600" vehsPerHour="59.88" departLane="best" departPos="random" departSpeed="0" from="222682222#1" to="193253427#0"/>
  <flow id="car_222682222#1_198876043#0_0007f0d1" type="car" begin="0" end="3600" vehsPerHour="50.72" departLane="best" departPos="random" departSpeed="0" from="222682222#1" to="198876043#0"/>
  <flow id="car_222682222#1_28231434_0007f0d1" type="car" begin="0" end="3600" vehsPerHour="52.61" departLane="best" departPos="random" departSpeed="0" from="222682222#1" to="28231434"/>
  <flow id="car_222682222#1_23241821#0_0007f0d1" type="car" begin="0" end="3600" vehsPerHour="41.17" departLane="best" departPos="random" departSpeed="0" from="222682222#1" to="23241821#0"/>
  <flow id="car_222682222#1_198876042#0_0007f0d1" type="car" begin="0" end="3600" vehsPerHour="35.23" departLane="best" departPos="random" departSpeed="0" from="222682222#1" to="198876042#0"/>
  <flow id="motorcycle_222682222#1_193253427#0_0007f0d1" type="motorcycle" begin="0" end="3600" vehsPerHour="177.97" departLane="best" departPos="random" departSpeed="0" from="222682222#1" to="193253427#0"/>
  <flow id="motorcycle_222682222#1_198876043#0_0007f0d1" type="motorcycle" begin="0" end="3600" vehsPerHour="154.41" departLane="best" departPos="random" departSpeed="0" from="222682222#1" to="198876043#0"/>
  <flow id="motorcycle_222682222#1_28231434_0007f0d1" type="motorcycle" begin="0" end="3600" vehsPerHour="135.22" departLane="best" departPos="random" departSpeed="0" from="222682222#1" to="28231434"/>
  <flow id="motorcycle_222682222#1_23241821#0_0007f0d1" type="motorcycle" begin="0" end="3600" vehsPerHour="116.32" departLane="best" departPos="random" departSpeed="0" from="222682222#1" to="23241821#0"/>
  <flow id="motorcycle_222682222#1_198876042#0_0007f0d1" type="motorcycle" begin="0" end="3600" vehsPerHour="103.30" departLane="best" departPos="random" departSpeed="0" from="222682222#1" to="198876042#0"/>
  <flow id="car_193253433#2_198876043#0_0007f0d1" type="car" begin="0" end="3600" vehsPerHour="41.80" departLane="best" departPos="random" departSpeed="0" from="193253433#2" to="198876043#0"/>
  <flow id="car_193253433#2_28231434_0007f0d1" type="car" begin="0" end="3600" vehsPerHour="34.22" departLane="best" departPos="random" departSpeed="0" from="193253433#2" to="28231434"/>
  <flow id="car_193253433#2_23241821#0_0007f0d1" type="car" begin="0" end="3600" vehsPerHour="33.32" departLane="best" departPos="random" departSpeed="0" from="193253433#2" to="23241821#0"/>
  <flow id="car_193253433#2_198876042#0_0007f0d1" type="car" begin="0" end="3600" vehsPerHour="28.23" departLane="best" departPos="random" departSpeed="0" from="193253433#2" to="198876042#0"/>
  <flow id="car_193253433#2_193253427#0_0007f0d1" type="car" begin="0" end="3600" vehsPerHour="24.29" departLane="best" departPos="random" departSpeed="0" from="193253433#2" to="193253427#0"/>
  <flow id="motorcycle_193253433#2_198876043#0_0007f0d1" type="motorcycle" begin="0" end="3600" vehsPerHour="114.58" departLane="best" departPos="random" departSpeed="0" from="193253433#2" to="198876043#0"/>
  <flow id="motorcycle_193253433#2_28231434_0007f0d1" type="motorcycle" begin="0" end="3600" vehsPerHour="104.70" departLane="best" departPos="random" departSpeed="0" from="193253433#2" to="28231434"/>
  <flow id="motorcycle_193253433#2_23241821#0_0007f0d1" type="motorcycle" begin="0" end="3600" vehsPerHour="89.95" departLane="best" departPos="random" departSpeed="0" from="193253433#2" to="23241821#0"/>
  <flow id="motorcycle_193253433#2_198876042#0_0007f0d1" type="motorcycle" begin="0" end="3600" vehsPerHour="78.55" departLane="best" departPos="random" departSpeed="0" from="193253433#2" to="198876042#0"/>
  <flow id="motorcycle_193253433#2_193253427#0_0007f0d1" type="motorcycle" begin="0" end="3600" vehsPerHour="65.77" departLane="best" departPos="random" departSpeed="0" from="193253433#2" to="193253427#0"/>
  <flow id="car_198876045#1_28231434_0007f0d1" type="car" begin="0" end="3600" vehsPerHour="34.13" departLane="best" departPos="random" departSpeed="0" from="198876045#1" to="28231434"/>
  <flow id="car_198876045#1_23241821#0_0007f0d1" type="car" begin="0" end="3600" vehsPerHour="29.27" departLane="best" departPos="random" departSpeed="0" from="198876045#1" to="23241821#0"/>
  <flow id="car_198876045#1_198876042#0_0007f0d1" type="car" begin="0" end="3600" vehsPerHour="27.14" departLane="best" departPos="random" departSpeed="0" from="198876045#1" to="198876042#0"/>
  <flow id="car_198876045#1_193253427#0_0007f0d1" type="car" begin="0" end="3600" vehsPerHour="22.84" departLane="best" departPos="random" departSpeed="0" from="198876045#1" to="193253427#0"/>
  <flow id="car_198876045#1_198876043#2_0007f0d1" type="car" begin="0" end="3600" vehsPerHour="20.10" departLane="best" departPos="random" departSpeed="0" from="198876045#1" to="198876043#2"/>
  <flow id="motorcycle_198876045#1_28231434_0007f0d1" type="motorcycle" begin="0" end="3600" vehsPerHour="98.15" departLane="best" departPos="random" departSpeed="0" from="198876045#1" to="28231434"/>
  <flow id="motorcycle_198876045#1_23241821#0_0007f0d1" type="motorcycle" begin="0" end="3600" vehsPerHour="84.89" departLane="best" departPos="random" departSpeed="0" from="198876045#1" to="23241821#0"/>
  <flow id="motorcycle_198876045#1_198876042#0_0007f0d1" type="motorcycle" begin="0" end="3600" vehsPerHour="80.60" departLane="best" departPos="random" departSpeed="0" from="198876045#1" to="198876042#0"/>
  <flow id="motorcycle_198876045#1_193253427#0_0007f0d1" type="motorcycle" begin="0" end="3600" vehsPerHour="75.45" departLane="best" departPos="random" departSpeed="0" from="198876045#1" to="193253427#0"/>
  <flow id="motorcycle_198876045#1_198876043#2_0007f0d1" type="motorcycle" begin="0" end="3600" vehsPerHour="66.62" departLane="best" departPos="random" departSpeed="0" from="198876045#1" to="198876043#2"/>
  <flow id="car_-28231434_23241821#0_0007f0d1" type="car" begin="0" end="3600" vehsPerHour="24.21" departLane="best" departPos="random" departSpeed="0" from="-28231434" to="23241821#0"/>
  <flow id="car_-28231434_198876042#0_0007f0d1" type="car" begin="0" end="3600" vehsPerHour="19.67" departLane="best" departPos="random" departSpeed="0" from="-28231434" to="198876042#0"/>
  <flow id="car_-28231434_193253427#0_0007f0d1" type="car" begin="0" end="3600" vehsPerHour="17.14" departLane="best" departPos="random" departSpeed="0" from="-28231434" to="193253427#0"/>
  <flow id="car_-28231434_198876043#2_0007f0d1" type="car" begin="0" end="3600" vehsPerHour="17.38" departLane="best" departPos="random" departSpeed="0" from="-28231434" to="198876043#2"/>
  <flow id="car_-28231434_28231434_0007f0d1" type="car" begin="0" end="3600" vehsPerHour="13.29" departLane="best" departPos="random" departSpeed="0" from="-28231434" to="28231434"/>
  <flow id="motorcycle_-28231434_23241821#0_0007f0d1" type="motorcycle" begin="0" end="3600" vehsPerHour="66.66" departLane="best" departPos="random" departSpeed="0" from="-28231434" to="23241821#0"/>
  <flow id="motorcycle_-28231434_198876042#0_0007f0d1" type="motorcycle" begin="0" end="3600" vehsPerHour="57.97" departLane="best" departPos="random" departSpeed="0" from="-28231434" to="198876042#0"/>
  <flow id="motorcycle_-28231434_193253427#0_0007f0d1" type="motorcycle" begin="0" end="3600" vehsPerHour="54.72" departLane="best" departPos="random" departSpeed="0" from="-28231434" to="193253427#0"/>
  <flow id="motorcycle_-28231434_198876043#2_0007f0d1" type="motorcycle" begin="0" end="3600" vehsPerHour="49.42" departLane="best" departPos="random" departSpeed="0" from="-28231434" to="198876043#2"/>
  <flow id="motorcycle_-28231434_28231434_0007f0d1" type="motorcycle" begin="0" end="3600" vehsPerHour="41.73" departLane="best" departPos="random" departSpeed="0" from="-28231434" to="28231434"/>
  <flow id="car_-55029244#0_198876042#0_0007f0d1" type="car" begin="0" end="3600" vehsPerHour="27.50" departLane="best" departPos="random" departSpeed="0" from="-55029244#0" to="198876042#0"/>
  <flow id="car_-55029244#0_193253427#0_0007f0d1" type="car" begin="0" end="3600" vehsPerHour="23.81" departLane="best" departPos="random" departSpeed="0" from="-55029244#0" to="193253427#0"/>
  <flow id="car_-55029244#0_198876043#2_0007f0d1" type="car" begin="0" end="3600" vehsPerHour="19.84" departLane="best" departPos="random" departSpeed="0" from="-55029244#0" to="198876043#2"/>
  <flow id="car_-55029244#0_28231434_0007f0d1" type="car" begin="0" end="3600" vehsPerHour="16.09" departLane="best" departPos="random" departSpeed="0" from="-55029244#0" to="28231434"/>
  <flow id="car_-55029244#0_23241821#0_0007f0d1" type="car" begin="0" end="3600" vehsPerHour="13.18" departLane="best" departPos="random" departSpeed="0" from="-55029244#0" to="23241821#0"/>
  <flow id="motorcycle_-55029244#0_198876042#0_0007f0d1" type="motorcycle" begin="0" end="3600" vehsPerHour="81.47" departLane="best" departPos="random" departSpeed="0" from="-55029244#0" to="198876042#0"/>
  <flow id="motorcycle_-55029244#0_193253427#0_0007f0d1" type="motorcycle" begin="0" end="3600" vehsPerHour="66.41" departLane="best" departPos="random" departSpeed="0" from="-55029244#0" to="193253427#0"/>
  <flow id="motorcycle_-55029244#0_198876043#2_0007f0d1" type="motorcycle" begin="0" end="3600" vehsPerHour="59.95" departLane="best" departPos="random" departSpeed="0" from="-55029244#0" to="198876043#2"/>
  <flow id="motorcycle_-55029244#0_28231434_0007f0d1" type="motorcycle" begin="0" end="3600" vehsPerHour="56.14" departLane="best" departPos="random" departSpeed="0" from="-55029244#0" to="28231434"/>
  <flow id="motorcycle_-55029244#0_23241821#0_0007f0d1" type="motorcycle" begin="0" end="3600" vehsPerHour="46.03" departLane="best" departPos="random" departSpeed="0" from="-55029244#0" to="23241821#0"/>
  <flow id="car_34241530#0_198876042#0_0007f0d1" type="car" begin="0" end="3600" vehsPerHour="27.45" departLane="best" departPos="random" departSpeed="0" from="34241530#0" to="198876042#0"/>
  <flow id="car_34241530#0_193253427#0_0007f0d1" type="car" begin="0" end="3600" vehsPerHour="22.95" departLane="best" departPos="random" departSpeed="0" from="34241530#0" to="193253427#0"/>
  <flow id="car_34241530#0_198876043#2_0007f0d1" type="car" begin="0" end="3600" vehsPerHour="19.89" departLane="best" departPos="random" departSpeed="0" from="34241530#0" to="198876043#2"/>
  <flow id="car_34241530#0_28231434_0007f0d1" type="car" begin="0" end="3600" vehsPerHour="16.78" departLane="best" departPos="random" departSpeed="0" from="34241530#0" to="28231434"/>
  <flow id="car_34241530#0_23241821#0_0007f0d1" type="car" begin="0" end="3600" vehsPerHour="13.83" departLane="best" departPos="random" departSpeed="0" from="34241530#0" to="23241821#0"/>
  <flow id="motorcycle_34241530#0_198876042#0_0007f0d1" type="motorcycle" begin="0" end="3600" vehsPerHour="79.47" departLane="best" departPos="random" departSpeed="0" from="34241530#0" to="198876042#0"/>
  <flow id="motorcycle_34241530#0_193253427#0_0007f0d1" type="motorcycle" begin="0" end="3600" vehsPerHour="67.66" departLane="best" departPos="random" departSpeed="0" from="34241530#0" to="193253427#0"/>
  <flow id="motorcycle_34241530#0_198876043#2_0007f0d1" type="motorcycle" begin="0" end="3600" vehsPerHour="60.79" departLane="best" departPos="random" departSpeed="0" from="34241530#0" to="198876043#2"/>
  <flow id="motorcycle_34241530#0_28231434_0007f0d1" type="motorcycle" begin="0" end="3600" vehsPerHour="54.64" departLane="best" departPos="random" departSpeed="0" from="34241530#0" to="28231434"/>
  <flow id="motorcycle_34241530#0_23241821#0_0007f0d1" type="motorcycle" begin="0" end="3600" vehsPerHour="46.73" departLane="best" departPos="random" departSpeed="0" from="34241530#0" to="23241821#0"/>
  <flow id="truck_34241530#0_198876042#0_0007f0d1" type="truck" begin="0" end="3600" vehsPerHour="11.82" departLane="best" departPos="random" departSpeed="0" from="34241530#0" to="198876042#0"/>
</routes>
