<routes>
<vType id="car" vClass="passenger" accel="2.6" decel="4.5" sigma="0.5" length="5.0" maxSpeed="13.9"/>
<vType id="motorcycle" vClass="motorcycle" accel="3.0" decel="5.0" sigma="0.5" length="2.0" maxSpeed="14.0"/>
<vType id="truck" vClass="truck" accel="1.2" decel="3.5" sigma="0.5" length="12.0" maxSpeed="10.0"/>

  <flow id="car_222682222#1_193253427#0_0009d5d3" type="car" begin="0" end="3600" vehsPerHour="62.52" departLane="best" departPos="random" departSpeed="0" from="222682222#1" to="193253427#0"/>
  <flow id="car_222682222#1_198876043#0_0009d5d3" type="car" begin="0" end="3600" vehsPerHour="50.52" departLane="best" departPos="random" departSpeed="0" from="222682222#1" to="198876043#0"/>
  <flow id="car_222682222#1_28231434_0009d5d3" type="car" begin="0" end="3600" vehsPerHour="51.67" departLane="best" departPos="random" departSpeed="0" from="222682222#1" to="28231434"/>
  <flow id="car_222682222#1_23241821#0_0009d5d3" type="car" begin="0" end="3600" vehsPerHour="42.03" departLane="best" departPos="random" departSpeed="0" from="222682222#1" to="23241821#0"/>
  <flow id="car_222682222#1_198876042#0_0009d5d3" type="car" begin="0" end="3600" vehsPerHour="33.56" departLane="best" departPos="random" departSpeed="0" from="222682222#1" to="198876042#0"/>
  <flow id="motorcycle_222682222#1_193253427#0_0009d5d3" type="motorcycle" begin="0" end="3600" vehsPerHour="169.83" departLane="best" departPos="random" departSpeed="0" from="222682222#1" to="193253427#0"/>
  <flow id="motorcycle_222682222#1_198876043#0_0009d5d3" type="motorcycle" begin="0" end="3600" vehsPerHour="160.84" departLane="best" departPos="random" departSpeed="0" from="222682222#1" to="198876043#0"/>
  <flow id="motorcycle_222682222#1_28231434_0009d5d3" type="motorcycle" begin="0" end="3600" vehsPerHour="148.50" departLane="best" departPos="random" departSpeed="0" from="222682222#1" to="28231434"/>
  <flow id="motorcycle_222682222#1_23241821#0_0009d5d3" type="motorcycle" begin="0" end="3600" vehsPerHour="116.47" departLane="best" departPos="random" departSpeed="0" from="222682222#1" to="23241821#0"/>
  <flow id="motorcycle_222682222#1_198876042#0_0009d5d3" type="motorcycle" begin="0" end="3600" vehsPerHour="104.28" departLane="best" departPos="random" departSpeed="0" from="222682222#1" to="198876042#0"/>
  <flow id="car_193253433#2_198876043#0_0009d5d3" type="car" begin="0" end="3600" vehsPerHour="42.10" departLane="best" departPos="random" departSpeed="0" from="193253433#2" to="198876043#0"/>
  <flow id="car_193253433#2_28231434_0009d5d3" type="car" begin="0" end="3600" vehsPerHour="34.54" departLane="best" departPos="random" departSpeed="0" from="193253433#2" to="28231434"/>
  <flow id="car_193253433#2_23241821#0_0009d5d3" type="car" begin="0" end="3600" vehsPerHour="32.81" departLane="best" departPos="random" departSpeed="0" from="193253433#2" to="23241821#0"/>
  <flow id="car_193253433#2_198876042#0_0009d5d3" type="car" begin="0" end="3600" vehsPerHour="26.33" departLane="best" departPos="random" departSpeed="0" from="193253433#2" to="198876042#0"/>
  <flow id="car_193253433#2_193253427#0_0009d5d3" type="car" begin="0" end="3600" vehsPerHour="23.00" departLane="best" departPos="random" departSpeed="0" from="193253433#2" to="193253427#0"/>
  <flow id="motorcycle_193253433#2_198876043#0_0009d5d3" type="motorcycle" begin="0" end="3600" vehsPerHour="118.47" departLane="best" departPos="random" departSpeed="0" from="193253433#2" to="198876043#0"/>
  <flow id="motorcycle_193253433#2_28231434_0009d5d3" type="motorcycle" begin="0" end="3600" vehsPerHour="101.63" departLane="best" departPos="random" departSpeed="0" from="193253433#2" to="28231434"/>
  <flow id="motorcycle_193253433#2_23241821#0_0009d5d3" type="motorcycle" begin="0" end="3600" vehsPerHour="94.52" departLane="best" departPos="random" departSpeed="0" from="193253433#2" to="23241821#0"/>
  <flow id="motorcycle_193253433#2_198876042#0_0009d5d3" type="motorcycle" begin="0" end="3600" vehsPerHour="81.14" departLane="best" departPos="random" departSpeed="0" from="193253433#2" to="198876042#0"/>
  <flow id="motorcycle_193253433#2_193253427#0_0009d5d3" type="motorcycle" begin="0" end="3600" vehsPerHour="68.07" departLane="best" departPos="random" departSpeed="0" from="193253433#2" to="193253427#0"/>
  <flow id="car_198876045#1_28231434_0009d5d3" type="car" begin="0" end="3600" vehsPerHour="33.38" departLane="best" departPos="random" departSpeed="0" from="198876045#1" to="28231434"/>
  <flow id="car_198876045#1_23241821#0_0009d5d3" type="car" begin="0" end="3600" vehsPerHour="31.03" departLane="best" departPos="random" departSpeed="0" from="198876045#1" to="23241821#0"/>
  <flow id="car_198876045#1_198876042#0_0009d5d3" type="car" begin="0" end="3600" vehsPerHour="27.32" departLane="best" departPos="random" departSpeed="0" from="198876045#1" to="198876042#0"/>
  <flow id="car_198876045#1_193253427#0_0009d5d3" type="car" begin="0" end="3600" vehsPerHour="24.07" departLane="best" departPos="random" departSpeed="0" from="198876045#1" to="193253427#0"/>
  <flow id="car_198876045#1_198876043#2_0009d5d3" type="car" begin="0" end="3600" vehsPerHour="19.84" departLane="best" departPos="random" departSpeed="0" from="198876045#1" to="198876043#2"/>
  <flow id="motorcycle_198876045#1_28231434_0009d5d3" type="motorcycle" begin="0" end="3600" vehsPerHour="100.19" departLane="best" departPos="random" departSpeed="0" from="198876045#1" to="28231434"/>
  <flow id="motorcycle_198876045#1_23241821#0_0009d5d3" type="motorcycle" begin="0" end="3600" vehsPerHour="86.21" departLane="best" departPos="random" departSpeed="0" from="198876045#1" to="23241821#0"/>
  <flow id="motorcycle_198876045#1_198876042#0_0009d5d3" type="motorcycle" begin="0" end="3600" vehsPerHour="82.48" departLane="best" departPos="random" departSpeed="0" from="198876045#1" to="198876042#0"/>
  <flow id="motorcycle_198876045#1_193253427#0_0009d5d3" type="motorcycle" begin="0" end="3600" vehsPerHour="74.44" departLane="best" departPos="random" departSpeed="0" from="198876045#1" to="193253427#0"/>
  <flow id="motorcycle_198876045#1_198876043#2_0009d5d3" type="motorcycle" begin="0" end="3600" vehsPerHour="70.17" departLane="best" departPos="random" departSpeed="0" from="198876045#1" to="198876043#2"/>
  <flow id="car_-28231434_23241821#0_0009d5d3" type="car" begin="0" end="3600" vehsPerHour="22.58" departLane="best" departPos="random" departSpeed="0" from="-28231434" to="23241821#0"/>
  <flow id="car_-28231434_198876042#0_0009d5d3" type="car" begin="0" end="3600" vehsPerHour="19.87" departLane="best" departPos="random" departSpeed="0" from="-28231434" to="198876042#0"/>
  <flow id="car_-28231434_193253427#0_0009d5d3" type="car" begin="0" end="3600" vehsPerHour="16.75" departLane="best" departPos="random" departSpeed="0" from="-28231434" to="193253427#0"/>
  <flow id="car_-28231434_198876043#2_0009d5d3" type="car" begin="0" end="3600" vehsPerHour="17.64" departLane="best" departPos="random" departSpeed="0" from="-28231434" to="198876043#2"/>
  <flow id="car_-28231434_28231434_0009d5d3" type="car" begin="0" end="3600" vehsPerHour="13.53" departLane="best" departPos="random" departSpeed="0" from="-28231434" to="28231434"/>
  <flow id="motorcycle_-28231434_23241821#0_0009d5d3" type="motorcycle" begin="0" end="3600" vehsPerHour="68.39" departLane="best" departPos="random" departSpeed="0" from="-28231434" to="23241821#0"/>
  <flow id="motorcycle_-28231434_198876042#0_0009d5d3" type="motorcycle" begin="0" end="3600" vehsPerHour="60.64" departLane="best" departPos="random" departSpeed="0" from="-28231434" to="198876042#0"/>
  <flow id="motorcycle_-28231434_193253427#0_0009d5d3" type="motorcycle" begin="0" end="3600" vehsPerHour="55.34" departLane="best" departPos="random" departSpeed="0" from="-28231434" to="193253427#0"/>
  <flow id="motorcycle_-28231434_198876043#2_0009d5d3" type="motorcycle" begin="0" end="3600" vehsPerHour="48.55" departLane="best" departPos="random" departSpeed="0" from="-28231434" to="198876043#2"/>
  <flow id="motorcycle_-28231434_28231434_0009d5d3" type="motorcycle" begin="0" end="3600" vehsPerHour="40.85" departLane="best" departPos="random" departSpeed="0" from="-28231434" to="28231434"/>
  <flow id="car_-55029244#0_198876042#0_0009d5d3" type="car" begin="0" end="3600" vehsPerHour="26.07" departLane="best" departPos="random" departSpeed="0" from="-55029244#0" to="198876042#0"/>
  <flow id="car_-55029244#0_193253427#0_0009d5d3" type="car" begin="0" end="3600" vehsPerHour="24.52" departLane="best" departPos="random" departSpeed="0" from="-55029244#0" to="193253427#0"/>
  <flow id="car_-55029244#0_198876043#2_0009d5d3" type="car" begin="0" end="3600" vehsPerHour="19.92" departLane="best" departPos="random" departSpeed="0" from="-55029244#0" to="198876043#2"/>
  <flow id="car_-55029244#0_28231434_0009d5d3" type="car" begin="0" end="3600" vehsPerHour="17.24" departLane="best" departPos="random" departSpeed="0" from="-55029244#0" to="28231434"/>
  <flow id="car_-55029244#0_23241821#0_0009d5d3" type="car" begin="0" end="3600" vehsPerHour="13.58" departLane="best" departPos="random" departSpeed="0" from="-55029244#0" to="23241821#0"/>
  <flow id="motorcycle_-55029244#0_198876042#0_0009d5d3" type="motorcycle" begin="0" end="3600" vehsPerHour="79.90" departLane="best" departPos="random" departSpeed="0" from="-55029244#0" to="198876042#0"/>
  <flow id="motorcycle_-55029244#0_193253427#0_0009d5d3" type="motorcycle" begin="0" end="3600" vehsPerHour="69.66" departLane="best" departPos="random" departSpeed="0" from="-55029244#0" to="193253427#0"/>
  <flow id="motorcycle_-55029244#0_198876043#2_0009d5d3" type="motorcycle" begin="0" end="3600" vehsPerHour="59.05" departLane="best" departPos="random" departSpeed="0" from="-55029244#0" to="198876043#2"/>
  <flow id="motorcycle_-55029244#0_28231434_0009d5d3" type="motorcycle" begin="0" end="3600" vehsPerHour="53.37" departLane="best" departPos="random" departSpeed="0" from="-55029244#0" to="28231434"/>
  <flow id="motorcycle_-55029244#0_23241821#0_0009d5d3" type="motorcycle" begin="0" end="3600" vehsPerHour="47.29" departLane="best" departPos="random" departSpeed="0" from="-55029244#0" to="23241821#0"/>
  <flow id="car_34241530#0_198876042#0_0009d5d3" type="car" begin="0" end="3600" vehsPerHour="28.02" departLane="best" departPos="random" departSpeed="0" from="34241530#0" to="198876042#0"/>
  <flow id="car_34241530#0_193253427#0_0009d5d3" type="car" begin="0" end="3600" vehsPerHour="22.51" departLane="best" departPos="random" departSpeed="0" from="34241530#0" to="193253427#0"/>
  <flow id="car_34241530#0_198876043#2_0009d5d3" type="car" begin="0" end="3600" vehsPerHour="20.92" departLane="best" departPos="random" departSpeed="0" from="34241530#0" to="198876043#2"/>
  <flow id="car_34241530#0_28231434_0009d5d3" type="car" begin="0" end="3600" vehsPerHour="17.19" departLane="best" departPos="random" departSpeed="0" from="34241530#0" to="28231434"/>
  <flow id="car_34241530#0_23241821#0_0009d5d3" type="car" begin="0" end="3600" vehsPerHour="12.97" departLane="best" departPos="random" departSpeed="0" from="34241530#0" to="23241821#0"/>
  <flow id="motorcycle_34241530#0_198876042#0_0009d5d3" type="motorcycle" begin="0" end="3600" vehsPerHour="78.63" departLane="best" departPos="random" departSpeed="0" from="34241530#0" to="198876042#0"/>
  <flow id="motorcycle_34241530#0_193253427#0_0009d5d3" type="motorcycle" begin="0" end="3600" vehsPerHour="70.60" departLane="best" departPos="random" departSpeed="0" from="34241530#0" to="193253427#0"/>
  <flow id="motorcycle_34241530#0_198876043#2_0009d5d3" type="motorcycle" begin="0" end="3600" vehsPerHour="62.62" departLane="best" departPos="random" departSpeed="0" from="34241530#0" to="198876043#2"/>
  <flow id="motorcycle_34241530#0_28231434_0009d5d3" type="motorcycle" begin="0" end="3600" vehsPerHour="55.12" departLane="best" departPos="random" departSpeed="0" from="34241530#0" to="28231434"/>
  <flow id="motorcycle_34241530#0_23241821#0_0009d5d3" type="motorcycle" begin="0" end="3600" vehsPerHour="46.21" departLane="best" departPos="random" departSpeed="0" from="34241530#0" to="23241821#0"/>
  <flow id="truck_34241530#0_198876042#0_0009d5d3" type="truck" begin="0" end="3600" vehsPerHour="11.24" departLane="best" departPos="random" departSpeed="0" from="34241530#0" to="198876042#0"/>
</routes>
