<routes>
<vType id="car" vClass="passenger" accel="2.6" decel="4.5" sigma="0.5" length="5.0" maxSpeed="13.9"/>
<vType id="motorcycle" vClass="motorcycle" accel="3.0" decel="5.0" sigma="0.5" length="2.0" maxSpeed="14.0"/>
<vType id="truck" vClass="truck" accel="1.2" decel="3.5" sigma="0.5" length="12.0" maxSpeed="10.0"/>

  <flow id="car_222682222#1_193253427#0_000bb99d" type="car" begin="0" end="3600" vehsPerHour="63.36" departLane="best" departPos="random" departSpeed="0" from="222682222#1" to="193253427#0"/>
  <flow id="car_222682222#1_198876043#0_000bb99d" type="car" begin="0" end="3600" vehsPerHour="51.76" departLane="best" departPos="random" departSpeed="0" from="222682222#1" to="198876043#0"/>
  <flow id="car_222682222#1_28231434_000bb99d" type="car" begin="0" end="3600" vehsPerHour="52.61" departLane="best" departPos="random" departSpeed="0" from="222682222#1" to="28231434"/>
  <flow id="car_222682222#1_23241821#0_000bb99d" type="car" begin="0" end="3600" vehsPerHour="40.71" departLane="best" departPos="random" departSpeed="0" from="222682222#1" to="23241821#0"/>
  <flow id="car_222682222#1_198876042#0_000bb99d" type="car" begin="0" end="3600" vehsPerHour="34.96" departLane="best" departPos="random" departSpeed="0" from="222682222#1" to="198876042#0"/>
  <flow id="motorcycle_222682222#1_193253427#0_000bb99d" type="motorcycle" begin="0" end="3600" vehsPerHour="174.91" departLane="best" departPos="random" departSpeed="0" from="222682222#1" to="193253427#0"/>
  <flow id="motorcycle_222682222#1_198876043#0_000bb99d" type="motorcycle" begin="0" end="3600" vehsPerHour="150.95" departLane="best" departPos="random" departSpeed="0" from="222682222#1" to="198876043#0"/>
  <flow id="motorcycle_222682222#1_28231434_000bb99d" type="motorcycle" begin="0" end="3600" vehsPerHour="134.93" departLane="best" departPos="random" departSpeed="0" from="222682222#1" to="28231434"/>
  <flow id="motorcycle_222682222#1_23241821#0_000bb99d" type="motorcycle" begin="0" end="3600" vehsPerHour="114.23" departLane="best" departPos="random" departSpeed="0" from="222682222#1" to="23241821#0"/>
  <flow id="motorcycle_222682222#1_198876042#0_000bb99d" type="motorcycle" begin="0" end="3600" vehsPerHour="103.00" departLane="best" departPos="random" departSpeed="0" from="222682222#1" to="198876042#0"/>
  <flow id="car_193253433#2_198876043#0_000bb99d" type="car" begin="0" end="3600" vehsPerHour="40.11" departLane="best" departPos="random" departSpeed="0" from="193253433#2" to="198876043#0"/>
  <flow id="car_193253433#2_28231434_000bb99d" type="car" begin="0" end="3600" vehsPerHour="35.22" departLane="best" departPos="random" departSpeed="0" from="193253433#2" to="28231434"/>
  <flow id="car_193253433#2_23241821#0_000bb99d" type="car" begin="0" end="3600" vehsPerHour="32.15" departLane="best" departPos="random" departSpeed="0" from="193253433#2" to="23241821#0"/>
  <flow id="car_193253433#2_198876042#0_000bb99d" type="car" begin="0" end="3600" vehsPerHour="26.44" departLane="best" departPos="random" departSpeed="0" from="193253433#2" to="198876042#0"/>
  <flow id="car_193253433#2_193253427#0_000bb99d" type="car" begin="0" end="3600" vehsPerHour="24.17" departLane="best" departPos="random" departSpeed="0" from="193253433#2" to="193253427#0"/>
  <flow id="motorcycle_193253433#2_198876043#0_000bb99d" type="motorcycle" begin="0" end="3600" vehsPerHour="120.11" departLane="best" departPos="random" departSpeed="0" from="193253433#2" to="198876043#0"/>
  <flow id="motorcycle_193253433#2_28231434_000bb99d" type="motorcycle" begin="0" end="3600" vehsPerHour="105.13" departLane="best" departPos="random" departSpeed="0" from="193253433#2" to="28231434"/>
  <flow id="motorcycle_193253433#2_23241821#0_000bb99d" type="motorcycle" begin="0" end="3600" vehsPerHour="91.49" departLane="best" departPos="random" departSpeed="0" from="193253433#2" to="23241821#0"/>
  <flow id="motorcycle_193253433#2_198876042#0_000bb99d" type="motorcycle" begin="0" end="3600" vehsPerHour="81.60" departLane="best" departPos="random" departSpeed="0" from="193253433#2" to="198876042#0"/>
  <flow id="motorcycle_193253433#2_193253427#0_000bb99d" type="motorcycle" begin="0" end="3600" vehsPerHour="66.12" departLane="best" departPos="random" departSpeed="0" from="193253433#2" to="193253427#0"/>
  <flow id="car_198876045#1_28231434_000bb99d" type="car" begin="0" end="3600" vehsPerHour="33.00" departLane="best" departPos="random" departSpeed="0" from="198876045#1" to="28231434"/>
  <flow id="car_198876045#1_23241821#0_000bb99d" type="car" begin="0" end="3600" vehsPerHour="31.26" departLane="best" departPos="random" departSpeed="0" from="198876045#1" to="23241821#0"/>
  <flow id="car_198876045#1_198876042#0_000bb99d" type="car" begin="0" end="3600" vehsPerHour="27.92" departLane="best" departPos="random" departSpeed="0" from="198876045#1" to="198876042#0"/>
  <flow id="car_198876045#1_193253427#0_000bb99d" type="car" begin="0" end="3600" vehsPerHour="24.55" departLane="best" departPos="random" departSpeed="0" from="198876045#1" to="193253427#0"/>
  <flow id="car_198876045#1_198876043#2_000bb99d" type="car" begin="0" end="3600" vehsPerHour="20.81" departLane="best" departPos="random" departSpeed="0" from="198876045#1" to="198876043#2"/>
  <flow id="motorcycle_198876045#1_28231434_000bb99d" type="motorcycle" begin="0" end="3600" vehsPerHour="104.02" departLane="best" departPos="random" departSpeed="0" from="198876045#1" to="28231434"/>
  <flow id="motorcycle_198876045#1_23241821#0_000bb99d" type="motorcycle" begin="0" end="3600" vehsPerHour="85.42" departLane="best" departPos="random" departSpeed="0" from="198876045#1" to="23241821#0"/>
  <flow id="motorcycle_198876045#1_198876042#0_000bb99d" type="motorcycle" begin="0" end="3600" vehsPerHour="81.14" departLane="best" departPos="random" departSpeed="0" from="198876045#1" to="198876042#0"/>
  <flow id="motorcycle_198876045#1_193253427#0_000bb99d" type="motorcycle" begin="0" end="3600" vehsPerHour="72.29" departLane="best" departPos="random" departSpeed="0" from="198876045#1" to="193253427#0"/>
  <flow id="motorcycle_198876045#1_198876043#2_000bb99d" type="motorcycle" begin="0" end="3600" vehsPerHour="69.60" departLane="best" departPos="random" departSpeed="0" from="198876045#1" to="198876043#2"/>
  <flow id="car_-28231434_23241821#0_000bb99d" type="car" begin="0" end="3600" vehsPerHour="24.45" departLane="best" departPos="random" departSpeed="0" from="-28231434" to="23241821#0"/>
  <flow id="car_-28231434_198876042#0_000bb99d" type="car" begin="0" end="3600" vehsPerHour="19.79" departLane="best" departPos="random" departSpeed="0" from="-28231434" to="198876042#0"/>
  <flow id="car_-28231434_193253427#0_000bb99d" type="car" begin="0" end="3600" vehsPerHour="17.65" departLane="best" departPos="random" departSpeed="0" from="-28231434" to="193253427#0"/>
  <flow id="car_-28231434_198876043#2_000bb99d" type="car" begin="0" end="3600" vehsPerHour="16.07" departLane="best" departPos="random" departSpeed="0" from="-28231434" to="198876043#2"/>
  <flow id="car_-28231434_28231434_000bb99d" type="car" begin="0" end="3600" vehsPerHour="13.85" departLane="best" departPos="random" departSpeed="0" from="-28231434" to="28231434"/>
  <flow id="motorcycle_-28231434_23241821#0_000bb99d" type="motorcycle" begin="0" end="3600" vehsPerHour="68.91" departLane="best" departPos="random" departSpeed="0" from="-28231434" to="23241821#0"/>
  <flow id="motorcycle_-28231434_198876042#0_000bb99d" type="motorcycle" begin="0" end="3600" vehsPerHour="58.12" departLane="best" departPos="random" departSpeed="0" from="-28231434" to="198876042#0"/>
  <flow id="motorcycle_-28231434_193253427#0_000bb99d" type="motorcycle" begin="0" end="3600" vehsPerHour="54.51" departLane="best" departPos="random" departSpeed="0" from="-28231434" to="193253427#0"/>
  <flow id="motorcycle_-28231434_198876043#2_000bb99d" type="motorcycle" begin="0" end="3600" vehsPerHour="47.45" departLane="best" departPos="random" departSpeed="0" from="-28231434" to="198876043#2"/>
  <flow id="motorcycle_-28231434_28231434_000bb99d" type="motorcycle" begin="0" end="3600" vehsPerHour="39.34" departLane="best" departPos="random" departSpeed="0" from="-28231434" to="28231434"/>
  <flow id="car_-55029244#0_198876042#0_000bb99d" type="car" begin="0" end="3600" vehsPerHour="26.91" departLane="best" departPos="random" departSpeed="0" from="-55029244#0" to="198876042#0"/>
  <flow id="car_-55029244#0_193253427#0_000bb99d" type="car" begin="0" end="3600" vehsPerHour="23.40" departLane="best" departPos="random" departSpeed="0" from="-55029244#0" to="193253427#0"/>
  <flow id="car_-55029244#0_198876043#2_000bb99d" type="car" begin="0" end="3600" vehsPerHour="20.08" departLane="best" departPos="random" departSpeed="0" from="-55029244#0" to="198876043#2"/>
  <flow id="car_-55029244#0_28231434_000bb99d" type="car" begin="0" end="3600" vehsPerHour="17.47" departLane="best" departPos="random" departSpeed="0" from="-55029244#0" to="28231434"/>
  <flow id="car_-55029244#0_23241821#0_000bb99d" type="car" begin="0" end="3600" vehsPerHour="13.24" departLane="best" departPos="random" departSpeed="0" from="-55029244#0" to="23241821#0"/>
  <flow id="motorcycle_-55029244#0_198876042#0_000bb99d" type="motorcycle" begin="0" end="3600" vehsPerHour="79.30" departLane="best" departPos="random" departSpeed="0" from="-55029244#0" to="198876042#0"/>
  <flow id="motorcycle_-55029244#0_193253427#0_000bb99d" type="motorcycle" begin="0" end="3600" vehsPerHour="64.72" departLane="best" departPos="random" departSpeed="0" from="-55029244#0" to="193253427#0"/>
  <flow id="motorcycle_-55029244#0_198876043#2_000bb99d" type="motorcycle" begin="0" end="3600" vehsPerHour="59.78" departLane="best" departPos="random" departSpeed="0" from="-55029244#0" to="198876043#2"/>
  <flow id="motorcycle_-55029244#0_28231434_000bb99d" type="motorcycle" begin="0" end="3600" vehsPerHour="54.24" departLane="best" departPos="random" departSpeed="0" from="-55029244#0" to="28231434"/>
  <flow id="motorcycle_-55029244#0_23241821#0_000bb99d" type="motorcycle" begin="0" end="3600" vehsPerHour="45.40" departLane="best" departPos="random" departSpeed="0" from="-55029244#0" to="23241821#0"/>
  <flow id="car_34241530#0_198876042#0_000bb99d" type="car" begin="0" end="3600" vehsPerHour="26.58" departLane="best" departPos="random" departSpeed="0" from="34241530#0" to="198876042#0"/>
  <flow id="car_34241530#0_193253427#0_000bb99d" type="car" begin="0" end="3600" vehsPerHour="24.74" departLane="best" departPos="random" departSpeed="0" from="34241530#0" to="193253427#0"/>
  <flow id="car_34241530#0_198876043#2_000bb99d" type="car" begin="0" end="3600" vehsPerHour="20.03" departLane="best" departPos="random" departSpeed="0" from="34241530#0" to="198876043#2"/>
  <flow id="car_34241530#0_28231434_000bb99d" type="car" begin="0" end="3600" vehsPerHour="16.86" departLane="best" departPos="random" departSpeed="0" from="34241530#0" to="28231434"/>
  <flow id="car_34241530#0_23241821#0_000bb99d" type="car" begin="0" end="3600" vehsPerHour="13.94" departLane="best" departPos="random" departSpeed="0" from="34241530#0" to="23241821#0"/>
  <flow id="motorcycle_34241530#0_198876042#0_000bb99d" type="motorcycle" begin="0" end="3600" vehsPerHour="77.26" departLane="best" departPos="random" departSpeed="0" from="34241530#0" to="198876042#0"/>
  <flow id="motorcycle_34241530#0_193253427#0_000bb99d" type="motorcycle" begin="0" end="3600" vehsPerHour="64.21" departLane="best" departPos="random" departSpeed="0" from="34241530#0" to="193253427#0"/>
  <flow id="motorcycle_34241530#0_198876043#2_000bb99d" type="motorcycle" begin="0" end="3600" vehsPerHour="59.70" departLane="best" departPos="random" departSpeed="0" from="34241530#0" to="198876043#2"/>
  <flow id="motorcycle_34241530#0_28231434_000bb99d" type="motorcycle" begin="0" end="3600" vehsPerHour="51.78" departLane="best" departPos="random" departSpeed="0" from="34241530#0" to="28231434"/>
  <flow id="motorcycle_34241530#0_23241821#0_000bb99d" type="motorcycle" begin="0" end="3600" vehsPerHour="48.57" departLane="best" departPos="random" departSpeed="0" from="34241530#0" to="23241821#0"/>
  <flow id="truck_34241530#0_198876042#0_000bb99d" type="truck" begin="0" end="3600" vehsPerHour="12.05" departLane="best" departPos="random" departSpeed="0" from="34241530#0" to="198876042#0"/>
</routes>
