<routes>
<vType id="car" vClass="passenger" accel="2.6" decel="4.5" sigma="0.5" length="5.0" maxSpeed="13.9"/>
<vType id="motorcycle" vClass="motorcycle" accel="3.0" decel="5.0" sigma="0.5" length="2.0" maxSpeed="14.0"/>
<vType id="truck" vClass="truck" accel="1.2" decel="3.5" sigma="0.5" length="12.0" maxSpeed="10.0"/>

  <flow id="car_222682222#1_193253427#0_000702bb" type="car" begin="0" end="3600" vehsPerHour="61.32" departLane="best" departPos="random" departSpeed="0" from="222682222#1" to="193253427#0"/>
  <flow id="car_222682222#1_198876043#0_000702bb" type="car" begin="0" end="3600" vehsPerHour="48.54" departLane="best" departPos="random" departSpeed="0" from="222682222#1" to="198876043#0"/>
  <flow id="car_222682222#1_28231434_000702bb" type="car" begin="0" end="3600" vehsPerHour="52.77" departLane="best" departPos="random" departSpeed="0" from="222682222#1" to="28231434"/>
  <flow id="car_222682222#1_23241821#0_000702bb" type="car" begin="0" end="3600" vehsPerHour="41.52" departLane="best" departPos="random" departSpeed="0" from="222682222#1" to="23241821#0"/>
  <flow id="car_222682222#1_198876042#0_000702bb" type="car" begin="0" end="3600" vehsPerHour="32.50" departLane="best" departPos="random" departSpeed="0" from="222682222#1" to="198876042#0"/>
  <flow id="motorcycle_222682222#1_193253427#0_000702bb" type="motorcycle" begin="0" end="3600" vehsPerHour="172.26" departLane="best" departPos="random" departSpeed="0" from="222682222#1" to="193253427#0"/>
  <flow id="motorcycle_222682222#1_198876043#0_000702bb" type="motorcycle" begin="0" end="3600" vehsPerHour="162.69" departLane="best" departPos="random" departSpeed="0" from="222682222#1" to="198876043#0"/>
  <flow id="motorcycle_222682222#1_28231434_000702bb" type="motorcycle" begin="0" end="3600" vehsPerHour="144.46" departLane="best" departPos="random" departSpeed="0" from="222682222#1" to="28231434"/>
  <flow id="motorcycle_222682222#1_23241821#0_000702bb" type="motorcycle" begin="0" end="3600" vehsPerHour="113.58" departLane="best" departPos="random" departSpeed="0" from="222682222#1" to="23241821#0"/>
  <flow id="motorcycle_222682222#1_198876042#0_000702bb" type="motorcycle" begin="0" end="3600" vehsPerHour="97.40" departLane="best" departPos="random" departSpeed="0" from="222682222#1" to="198876042#0"/>
  <flow id="car_193253433#2_198876043#0_000702bb" type="car" begin="0" end="3600" vehsPerHour="39.77" departLane="best" departPos="random" departSpeed="0" from="193253433#2" to="198876043#0"/>
  <flow id="car_193253433#2_28231434_000702bb" type="car" begin="0" end="3600" vehsPerHour="32.10" departLane="best" departPos="random" departSpeed="0" from="193253433#2" to="28231434"/>
  <flow id="car_193253433#2_23241821#0_000702bb" type="car" begin="0" end="3600" vehsPerHour="34.73" departLane="best" departPos="random" departSpeed="0" from="193253433#2" to="23241821#0"/>
  <flow id="car_193253433#2_198876042#0_000702bb" type="car" begin="0" end="3600" vehsPerHour="26.35" departLane="best" departPos="random" departSpeed="0" from="193253433#2" to="198876042#0"/>
  <flow id="car_193253433#2_193253427#0_000702bb" type="car" begin="0" end="3600" vehsPerHour="23.20" departLane="best" departPos="random" departSpeed="0" from="193253433#2" to="193253427#0"/>
  <flow id="motorcycle_193253433#2_198876043#0_000702bb" type="motorcycle" begin="0" end="3600" vehsPerHour="114.74" departLane="best" departPos="random" departSpeed="0" from="193253433#2" to="198876043#0"/>
  <flow id="motorcycle_193253433#2_28231434_000702bb" type="motorcycle" begin="0" end="3600" vehsPerHour="102.77" departLane="best" departPos="random" departSpeed="0" from="193253433#2" to="28231434"/>
  <flow id="motorcycle_193253433#2_23241821#0_000702bb" type="motorcycle" begin="0" end="3600" vehsPerHour="91.45" departLane="best" departPos="random" departSpeed="0" from="193253433#2" to="23241821#0"/>
  <flow id="motorcycle_193253433#2_198876042#0_000702bb" type="motorcycle" begin="0" end="3600" vehsPerHour="78.20" departLane="best" departPos="random" departSpeed="0" from="193253433#2" to="198876042#0"/>
  <flow id="motorcycle_193253433#2_193253427#0_000702bb" type="motorcycle" begin="0" end="3600" vehsPerHour="69.97" departLane="best" departPos="random" departSpeed="0" from="193253433#2" to="193253427#0"/>
  <flow id="car_198876045#1_28231434_000702bb" type="car" begin="0" end="3600" vehsPerHour="33.46" departLane="best" departPos="random" departSpeed="0" from="198876045#1" to="28231434"/>
  <flow id="car_198876045#1_23241821#0_000702bb" type="car" begin="0" end="3600" vehsPerHour="30.87" departLane="best" departPos="random" departSpeed="0" from="198876045#1" to="23241821#0"/>
  <flow id="car_198876045#1_198876042#0_000702bb" type="car" begin="0" end="3600" vehsPerHour="26.00" departLane="best" departPos="random" departSpeed="0" from="198876045#1" to="198876042#0"/>
  <flow id="car_198876045#1_193253427#0_000702bb" type="car" begin="0" end="3600" vehsPerHour="23.65" departLane="best" departPos="random" departSpeed="0" from="198876045#1" to="193253427#0"/>
  <flow id="car_198876045#1_198876043#2_000702bb" type="car" begin="0" end="3600" vehsPerHour="19.63" departLane="best" departPos="random" departSpeed="0" from="198876045#1" to="198876043#2"/>
  <flow id="motorcycle_198876045#1_28231434_000702bb" type="motorcycle" begin="0" end="3600" vehsPerHour="102.22" departLane="best" departPos="random" departSpeed="0" from="198876045#1" to="28231434"/>
  <flow id="motorcycle_198876045#1_23241821#0_000702bb" type="motorcycle" begin="0" end="3600" vehsPerHour="89.48" departLane="best" departPos="random" departSpeed="0" from="198876045#1" to="23241821#0"/>
  <flow id="motorcycle_198876045#1_198876042#0_000702bb" type="motorcycle" begin="0" end="3600" vehsPerHour="83.36" departLane="best" departPos="random" departSpeed="0" from="198876045#1" to="198876042#0"/>
  <flow id="motorcycle_198876045#1_193253427#0_000702bb" type="motorcycle" begin="0" end="3600" vehsPerHour="76.59" departLane="best" departPos="random" departSpeed="0" from="198876045#1" to="193253427#0"/>
  <flow id="motorcycle_198876045#1_198876043#2_000702bb" type="motorcycle" begin="0" end="3600" vehsPerHour="65.12" departLane="best" departPos="random" departSpeed="0" from="198876045#1" to="198876043#2"/>
  <flow id="car_-28231434_23241821#0_000702bb" type="car" begin="0" end="3600" vehsPerHour="24.32" departLane="best" departPos="random" departSpeed="0" from="-28231434" to="23241821#0"/>
  <flow id="car_-28231434_198876042#0_000702bb" type="car" begin="0" end="3600" vehsPerHour="19.23" departLane="best" departPos="random" departSpeed="0" from="-28231434" to="198876042#0"/>
  <flow id="car_-28231434_193253427#0_000702bb" type="car" begin="0" end="3600" vehsPerHour="17.55" departLane="best" departPos="random" departSpeed="0" from="-28231434" to="193253427#0"/>
  <flow id="car_-28231434_198876043#2_000702bb" type="car" begin="0" end="3600" vehsPerHour="16.70" departLane="best" departPos="random" departSpeed="0" from="-28231434" to="198876043#2"/>
  <flow id="car_-28231434_28231434_000702bb" type="car" begin="0" end="3600" vehsPerHour="13.54" departLane="best" departPos="random" departSpeed="0" from="-28231434" to="28231434"/>
  <flow id="motorcycle_-28231434_23241821#0_000702bb" type="motorcycle" begin="0" end="3600" vehsPerHour="65.81" departLane="best" departPos="random" departSpeed="0" from="-28231434" to="23241821#0"/>
  <flow id="motorcycle_-28231434_198876042#0_000702bb" type="motorcycle" begin="0" end="3600" vehsPerHour="63.29" departLane="best" departPos="random" departSpeed="0" from="-28231434" to="198876042#0"/>
  <flow id="motorcycle_-28231434_193253427#0_000702bb" type="motorcycle" begin="0" end="3600" vehsPerHour="52.58" departLane="best" departPos="random" departSpeed="0" from="-28231434" to="193253427#0"/>
  <flow id="motorcycle_-28231434_198876043#2_000702bb" type="motorcycle" begin="0" end="3600" vehsPerHour="48.44" departLane="best" departPos="random" departSpeed="0" from="-28231434" to="198876043#2"/>
  <flow id="motorcycle_-28231434_28231434_000702bb" type="motorcycle" begin="0" end="3600" vehsPerHour="39.52" departLane="best" departPos="random" departSpeed="0" from="-28231434" to="28231434"/>
  <flow id="car_-55029244#0_198876042#0_000702bb" type="car" begin="0" end="3600" vehsPerHour="26.35" departLane="best" departPos="random" departSpeed="0" from="-55029244#0" to="198876042#0"/>
  <flow id="car_-55029244#0_193253427#0_000702bb" type="car" begin="0" end="3600" vehsPerHour="23.48" departLane="best" departPos="random" departSpeed="0" from="-55029244#0" to="193253427#0"/>
  <flow id="car_-55029244#0_198876043#2_000702bb" type="car" begin="0" end="3600" vehsPerHour="21.06" departLane="best" departPos="random" departSpeed="0" from="-55029244#0" to="198876043#2"/>
  <flow id="car_-55029244#0_28231434_000702bb" type="car" begin="0" end="3600" vehsPerHour="16.06" departLane="best" departPos="random" departSpeed="0" from="-55029244#0" to="28231434"/>
  <flow id="car_-55029244#0_23241821#0_000702bb" type="car" begin="0" end="3600" vehsPerHour="13.29" departLane="best" departPos="random" departSpeed="0" from="-55029244#0" to="23241821#0"/>
  <flow id="motorcycle_-55029244#0_198876042#0_000702bb" type="motorcycle" begin="0" end="3600" vehsPerHour="78.96" departLane="best" departPos="random" departSpeed="0" from="-55029244#0" to="198876042#0"/>
  <flow id="motorcycle_-55029244#0_193253427#0_000702bb" type="motorcycle" begin="0" end="3600" vehsPerHour="68.82" departLane="best" departPos="random" departSpeed="0" from="-55029244#0" to="193253427#0"/>
  <flow id="motorcycle_-55029244#0_198876043#2_000702bb" type="motorcycle" begin="0" end="3600" vehsPerHour="60.79" departLane="best" departPos="random" departSpeed="0" from="-55029244#0" to="198876043#2"/>
  <flow id="motorcycle_-55029244#0_28231434_000702bb" type="motorcycle" begin="0" end="3600" vehsPerHour="51.26" departLane="best" departPos="random" departSpeed="0" from="-55029244#0" to="28231434"/>
  <flow id="motorcycle_-55029244#0_23241821#0_000702bb" type="motorcycle" begin="0" end="3600" vehsPerHour="47.43" departLane="best" departPos="random" departSpeed="0" from="-55029244#0" to="23241821#0"/>
  <flow id="car_34241530#0_198876042#0_000702bb" type="car" begin="0" end="3600" vehsPerHour="26.69" departLane="best" departPos="random" departSpeed="0" from="34241530#0" to="198876042#0"/>
  <flow id="car_34241530#0_193253427#0_000702bb" type="car" begin="0" end="3600" vehsPerHour="24.18" departLane="best" departPos="random" departSpeed="0" from="34241530#0" to="193253427#0"/>
  <flow id="car_34241530#0_198876043#2_000702bb" type="car" begin="0" end="3600" vehsPerHour="20.86" departLane="best" departPos="random" departSpeed="0" from="34241530#0" to="198876043#2"/>
  <flow id="car_34241530#0_28231434_000702bb" type="car" begin="0" end="3600" vehsPerHour="16.76" departLane="best" departPos="random" departSpeed="0" from="34241530#0" to="28231434"/>
  <flow id="car_34241530#0_23241821#0_000702bb" type="car" begin="0" end="3600" vehsPerHour="13.41" departLane="best" departPos="random" departSpeed="0" from="34241530#0" to="23241821#0"/>
  <flow id="motorcycle_34241530#0_198876042#0_000702bb" type="motorcycle" begin="0" end="3600" vehsPerHour="78.84" departLane="best" departPos="random" departSpeed="0" from="34241530#0" to="198876042#0"/>
  <flow id="motorcycle_34241530#0_193253427#0_000702bb" type="motorcycle" begin="0" end="3600" vehsPerHour="67.89" departLane="best" departPos="random" departSpeed="0" from="34241530#0" to="193253427#0"/>
  <flow id="motorcycle_34241530#0_198876043#2_000702bb" type="motorcycle" begin="0" end="3600" vehsPerHour="60.17" departLane="best" departPos="random" departSpeed="0" from="34241530#0" to="198876043#2"/>
  <flow id="motorcycle_34241530#0_28231434_000702bb" type="motorcycle" begin="0" end="3600" vehsPerHour="53.05" departLane="best" departPos="random" departSpeed="0" from="34241530#0" to="28231434"/>
  <flow id="motorcycle_34241530#0_23241821#0_000702bb" type="motorcycle" begin="0" end="3600" vehsPerHour="49.03" departLane="best" departPos="random" departSpeed="0" from="34241530#0" to="23241821#0"/>
  <flow id="truck_34241530#0_198876042#0_000702bb" type="truck" begin="0" end="3600" vehsPerHour="12.21" departLane="best" departPos="random" departSpeed="0" from="34241530#0" to="198876042#0"/>
</routes>
