<routes>
<vType id="car" vClass="passenger" accel="2.6" decel="4.5" sigma="0.5" length="5.0" maxSpeed="13.9"/>
<vType id="motorcycle" vClass="motorcycle" accel="3.0" decel="5.0" sigma="0.5" length="2.0" maxSpeed="14.0"/>
<vType id="truck" vClass="truck" accel="1.2" decel="3.5" sigma="0.5" length="12.0" maxSpeed="10.0"/>

  <flow id="car_222682222#1_193253427#0_0006032e" type="car" begin="0" end="3600" vehsPerHour="63.19" departLane="best" departPos="random" departSpeed="0" from="222682222#1" to="193253427#0"/>
  <flow id="car_222682222#1_198876043#0_0006032e" type="car" begin="0" end="3600" vehsPerHour="49.78" departLane="best" departPos="random" departSpeed="0" from="222682222#1" to="198876043#0"/>
  <flow id="car_222682222#1_28231434_0006032e" type="car" begin="0" end="3600" vehsPerHour="49.47" departLane="best" departPos="random" departSpeed="0" from="222682222#1" to="28231434"/>
  <flow id="car_222682222#1_23241821#0_0006032e" type="car" begin="0" end="3600" vehsPerHour="41.03" departLane="best" departPos="random" departSpeed="0" from="222682222#1" to="23241821#0"/>
  <flow id="car_222682222#1_198876042#0_0006032e" type="car" begin="0" end="3600" vehsPerHour="33.64" departLane="best" departPos="random" departSpeed="0" from="222682222#1" to="198876042#0"/>
  <flow id="motorcycle_222682222#1_193253427#0_0006032e" type="motorcycle" begin="0" end="3600" vehsPerHour="168.24" departLane="best" departPos="random" departSpeed="0" from="222682222#1" to="193253427#0"/>
  <flow id="motorcycle_222682222#1_198876043#0_0006032e" type="motorcycle" begin="0" end="3600" vehsPerHour="151.65" departLane="best" departPos="random" departSpeed="0" from="222682222#1" to="198876043#0"/>
  <flow id="motorcycle_222682222#1_28231434_0006032e" type="motorcycle" begin="0" end="3600" vehsPerHour="140.67" departLane="best" departPos="random" departSpeed="0" from="222682222#1" to="28231434"/>
  <flow id="motorcycle_222682222#1_23241821#0_0006032e" type="motorcycle" begin="0" end="3600" vehsPerHour="117.36" departLane="best" departPos="random" departSpeed="0" from="222682222#1" to="23241821#0"/>
  <flow id="motorcycle_222682222#1_198876042#0_0006032e" type="motorcycle" begin="0" end="3600" vehsPerHour="104.05" departLane="best" departPos="random" departSpeed="0" from="222682222#1" to="198876042#0"/>
  <flow id="car_193253433#2_198876043#0_0006032e" type="car" begin="0" end="3600" vehsPerHour="39.88" departLane="best" departPos="random" departSpeed="0" from="193253433#2" to="198876043#0"/>
  <flow id="car_193253433#2_28231434_0006032e" type="car" begin="0" end="3600" vehsPerHour="32.71" departLane="best" departPos="random" departSpeed="0" from="193253433#2" to="28231434"/>
  <flow id="car_193253433#2_23241821#0_0006032e" type="car" begin="0" end="3600" vehsPerHour="33.19" departLane="best" departPos="random" departSpeed="0" from="193253433#2" to="23241821#0"/>
  <flow id="car_193253433#2_198876042#0_0006032e" type="car" begin="0" end="3600" vehsPerHour="26.94" departLane="best" departPos="random" departSpeed="0" from="193253433#2" to="198876042#0"/>
  <flow id="car_193253433#2_193253427#0_0006032e" type="car" begin="0" end="3600" vehsPerHour="24.64" departLane="best" departPos="random" departSpeed="0" from="193253433#2" to="193253427#0"/>
  <flow id="motorcycle_193253433#2_198876043#0_0006032e" type="motorcycle" begin="0" end="3600" vehsPerHour="119.05" departLane="best" departPos="random" departSpeed="0" from="193253433#2" to="198876043#0"/>
  <flow id="motorcycle_193253433#2_28231434_0006032e" type="motorcycle" begin="0" end="3600" vehsPerHour="98.90" departLane="best" departPos="random" departSpeed="0" from="193253433#2" to="28231434"/>
  <flow id="motorcycle_193253433#2_23241821#0_0006032e" type="motorcycle" begin="0" end="3600" vehsPerHour="92.71" departLane="best" departPos="random" departSpeed="0" from="193253433#2" to="23241821#0"/>
  <flow id="motorcycle_193253433#2_198876042#0_0006032e" type="motorcycle" begin="0" end="3600" vehsPerHour="77.76" departLane="best" departPos="random" departSpeed="0" from="193253433#2" to="198876042#0"/>
  <flow id="motorcycle_193253433#2_193253427#0_0006032e" type="motorcycle" begin="0" end="3600" vehsPerHour="70.06" departLane="best" departPos="random" departSpeed="0" from="193253433#2" to="193253427#0"/>
  <flow id="car_198876045#1_28231434_0006032e" type="car" begin="0" end="3600" vehsPerHour="33.02" departLane="best" departPos="random" departSpeed="0" from="198876045#1" to="28231434"/>
  <flow id="car_198876045#1_23241821#0_0006032e" type="car" begin="0" end="3600" vehsPerHour="31.21" departLane="best" departPos="random" departSpeed="0" from="198876045#1" to="23241821#0"/>
  <flow id="car_198876045#1_198876042#0_0006032e" type="car" begin="0" end="3600" vehsPerHour="25.83" departLane="best" departPos="random" departSpeed="0" from="198876045#1" to="198876042#0"/>
  <flow id="car_198876045#1_193253427#0_0006032e" type="car" begin="0" end="3600" vehsPerHour="23.70" departLane="best" departPos="random" departSpeed="0" from="198876045#1" to="193253427#0"/>
  <flow id="car_198876045#1_198876043#2_0006032e" type="car" begin="0" end="3600" vehsPerHour="20.83" departLane="best" departPos="random" departSpeed="0" from="198876045#1" to="198876043#2"/>
  <flow id="motorcycle_198876045#1_28231434_0006032e" type="motorcycle" begin="0" end="3600" vehsPerHour="99.57" departLane="best" departPos="random" departSpeed="0" from="198876045#1" to="28231434"/>
  <flow id="motorcycle_198876045#1_23241821#0_0006032e" type="motorcycle" begin="0" end="3600" vehsPerHour="83.58" departLane="best" departPos="random" departSpeed="0" from="198876045#1" to="23241821#0"/>
  <flow id="motorcycle_198876045#1_198876042#0_0006032e" type="motorcycle" begin="0" end="3600" vehsPerHour="79.67" departLane="best" departPos="random" departSpeed="0" from="198876045#1" to="198876042#0"/>
  <flow id="motorcycle_198876045#1_193253427#0_0006032e" type="motorcycle" begin="0" end="3600" vehsPerHour="75.44" departLane="best" departPos="random" departSpeed="0" from="198876045#1" to="193253427#0"/>
  <flow id="motorcycle_198876045#1_198876043#2_0006032e" type="motorcycle" begin="0" end="3600" vehsPerHour="69.29" departLane="best" departPos="random" departSpeed="0" from="198876045#1" to="198876043#2"/>
  <flow id="car_-28231434_23241821#0_0006032e" type="car" begin="0" end="3600" vehsPerHour="24.29" departLane="best" departPos="random" departSpeed="0" from="-28231434" to="23241821#0"/>
  <flow id="car_-28231434_198876042#0_0006032e" type="car" begin="0" end="3600" vehsPerHour="20.20" departLane="best" departPos="random" departSpeed="0" from="-28231434" to="198876042#0"/>
  <flow id="car_-28231434_193253427#0_0006032e" type="car" begin="0" end="3600" vehsPerHour="16.14" departLane="best" departPos="random" departSpeed="0" from="-28231434" to="193253427#0"/>
  <flow id="car_-28231434_198876043#2_0006032e" type="car" begin="0" end="3600" vehsPerHour="16.57" departLane="best" departPos="random" departSpeed="0" from="-28231434" to="198876043#2"/>
  <flow id="car_-28231434_28231434_0006032e" type="car" begin="0" end="3600" vehsPerHour="13.42" departLane="best" departPos="random" departSpeed="0" from="-28231434" to="28231434"/>
  <flow id="motorcycle_-28231434_23241821#0_0006032e" type="motorcycle" begin="0" end="3600" vehsPerHour="65.02" departLane="best" departPos="random" departSpeed="0" from="-28231434" to="23241821#0"/>
  <flow id="motorcycle_-28231434_198876042#0_0006032e" type="motorcycle" begin="0" end="3600" vehsPerHour="60.63" departLane="best" departPos="random" departSpeed="0" from="-28231434" to="198876042#0"/>
  <flow id="motorcycle_-28231434_193253427#0_0006032e" type="motorcycle" begin="0" end="3600" vehsPerHour="52.54" departLane="best" departPos="random" departSpeed="0" from="-28231434" to="193253427#0"/>
  <flow id="motorcycle_-28231434_198876043#2_0006032e" type="motorcycle" begin="0" end="3600" vehsPerHour="47.20" departLane="best" departPos="random" departSpeed="0" from="-28231434" to="198876043#2"/>
  <flow id="motorcycle_-28231434_28231434_0006032e" type="motorcycle" begin="0" end="3600" vehsPerHour="41.72" departLane="best" departPos="random" departSpeed="0" from="-28231434" to="28231434"/>
  <flow id="car_-55029244#0_198876042#0_0006032e" type="car" begin="0" end="3600" vehsPerHour="25.82" departLane="best" departPos="random" departSpeed="0" from="-55029244#0" to="198876042#0"/>
  <flow id="car_-55029244#0_193253427#0_0006032e" type="car" begin="0" end="3600" vehsPerHour="23.39" departLane="best" departPos="random" departSpeed="0" from="-55029244#0" to="193253427#0"/>
  <flow id="car_-55029244#0_198876043#2_0006032e" type="car" begin="0" end="3600" vehsPerHour="21.16" departLane="best" departPos="random" departSpeed="0" from="-55029244#0" to="198876043#2"/>
  <flow id="car_-55029244#0_28231434_0006032e" type="car" begin="0" end="3600" vehsPerHour="16.61" departLane="best" departPos="random" departSpeed="0" from="-55029244#0" to="28231434"/>
  <flow id="car_-55029244#0_23241821#0_0006032e" type="car" begin="0" end="3600" vehsPerHour="12.82" departLane="best" departPos="random" departSpeed="0" from="-55029244#0" to="23241821#0"/>
  <flow id="motorcycle_-55029244#0_198876042#0_0006032e" type="motorcycle" begin="0" end="3600" vehsPerHour="78.09" departLane="best" departPos="random" departSpeed="0" from="-55029244#0" to="198876042#0"/>
  <flow id="motorcycle_-55029244#0_193253427#0_0006032e" type="motorcycle" begin="0" end="3600" vehsPerHour="68.77" departLane="best" departPos="random" departSpeed="0" from="-55029244#0" to="193253427#0"/>
  <flow id="motorcycle_-55029244#0_198876043#2_0006032e" type="motorcycle" begin="0" end="3600" vehsPerHour="57.79" departLane="best" departPos="random" departSpeed="0" from="-55029244#0" to="198876043#2"/>
  <flow id="motorcycle_-55029244#0_28231434_0006032e" type="motorcycle" begin="0" end="3600" vehsPerHour="51.39" departLane="best" departPos="random" departSpeed="0" from="-55029244#0" to="28231434"/>
  <flow id="motorcycle_-55029244#0_23241821#0_0006032e" type="motorcycle" begin="0" end="3600" vehsPerHour="48.84" departLane="best" departPos="random" departSpeed="0" from="-55029244#0" to="23241821#0"/>
  <flow id="car_34241530#0_198876042#0_0006032e" type="car" begin="0" end="3600" vehsPerHour="26.65" departLane="best" departPos="random" departSpeed="0" from="34241530#0" to="198876042#0"/>
  <flow id="car_34241530#0_193253427#0_0006032e" type="car" begin="0" end="3600" vehsPerHour="23.56" departLane="best" departPos="random" departSpeed="0" from="34241530#0" to="193253427#0"/>
  <flow id="car_34241530#0_198876043#2_0006032e" type="car" begin="0" end="3600" vehsPerHour="20.20" departLane="best" departPos="random" departSpeed="0" from="34241530#0" to="198876043#2"/>
  <flow id="car_34241530#0_28231434_0006032e" type="car" begin="0" end="3600" vehsPerHour="17.01" departLane="best" departPos="random" departSpeed="0" from="34241530#0" to="28231434"/>
  <flow id="car_34241530#0_23241821#0_0006032e" type="car" begin="0" end="3600" vehsPerHour="13.35" departLane="best" departPos="random" departSpeed="0" from="34241530#0" to="23241821#0"/>
  <flow id="motorcycle_34241530#0_198876042#0_0006032e" type="motorcycle" begin="0" end="3600" vehsPerHour="82.09" departLane="best" departPos="random" departSpeed="0" from="34241530#0" to="198876042#0"/>
  <flow id="motorcycle_34241530#0_193253427#0_0006032e" type="motorcycle" begin="0" end="3600" vehsPerHour="67.32" departLane="best" departPos="random" departSpeed="0" from="34241530#0" to="193253427#0"/>
  <flow id="motorcycle_34241530#0_198876043#2_0006032e" type="motorcycle" begin="0" end="3600" vehsPerHour="60.75" departLane="best" departPos="random" departSpeed="0" from="34241530#0" to="198876043#2"/>
  <flow id="motorcycle_34241530#0_28231434_0006032e" type="motorcycle" begin="0" end="3600" vehsPerHour="55.42" departLane="best" departPos="random" departSpeed="0" from="34241530#0" to="28231434"/>
  <flow id="motorcycle_34241530#0_23241821#0_0006032e" type="motorcycle" begin="0" end="3600" vehsPerHour="45.60" departLane="best" departPos="random" departSpeed="0" from="34241530#0" to="23241821#0"/>
  <flow id="truck_34241530#0_198876042#0_0006032e" type="truck" begin="0" end="3600" vehsPerHour="11.76" departLane="best" departPos="random" departSpeed="0" from="34241530#0" to="198876042#0"/>
</routes>
