<routes>
<vType id="car" vClass="passenger" accel="2.6" decel="4.5" sigma="0.5" length="5.0" maxSpeed="13.9"/>
<vType id="motorcycle" vClass="motorcycle" accel="3.0" decel="5.0" sigma="0.5" length="2.0" maxSpeed="14.0"/>
<vType id="truck" vClass="truck" accel="1.2" decel="3.5" sigma="0.5" length="12.0" maxSpeed="10.0"/>

  <flow id="car_222682222#1_193253427#0_0006d01a" type="car" begin="0" end="3600" vehsPerHour="61.81" departLane="best" departPos="random" departSpeed="0" from="222682222#1" to="193253427#0"/>
  <flow id="car_222682222#1_198876043#0_0006d01a" type="car" begin="0" end="3600" vehsPerHour="52.69" departLane="best" departPos="random" departSpeed="0" from="222682222#1" to="198876043#0"/>
  <flow id="car_222682222#1_28231434_0006d01a" type="car" begin="0" end="3600" vehsPerHour="48.26" departLane="best" departPos="random" departSpeed="0" from="222682222#1" to="28231434"/>
  <flow id="car_222682222#1_23241821#0_0006d01a" type="car" begin="0" end="3600" vehsPerHour="38.93" departLane="best" departPos="random" departSpeed="0" from="222682222#1" to="23241821#0"/>
  <flow id="car_222682222#1_198876042#0_0006d01a" type="car" begin="0" end="3600" vehsPerHour="33.20" departLane="best" departPos="random" departSpeed="0" from="222682222#1" to="198876042#0"/>
  <flow id="motorcycle_222682222#1_193253427#0_0006d01a" type="motorcycle" begin="0" end="3600" vehsPerHour="173.15" departLane="best" departPos="random" departSpeed="0" from="222682222#1" to="193253427#0"/>
  <flow id="motorcycle_222682222#1_198876043#0_0006d01a" type="motorcycle" begin="0" end="3600" vehsPerHour="155.61" departLane="best" departPos="random" departSpeed="0" from="222682222#1" to="198876043#0"/>
  <flow id="motorcycle_222682222#1_28231434_0006d01a" type="motorcycle" begin="0" end="3600" vehsPerHour="138.55" departLane="best" departPos="random" departSpeed="0" from="222682222#1" to="28231434"/>
  <flow id="motorcycle_222682222#1_23241821#0_0006d01a" type="motorcycle" begin="0" end="3600" vehsPerHour="110.73" departLane="best" departPos="random" departSpeed="0" from="222682222#1" to="23241821#0"/>
  <flow id="motorcycle_222682222#1_198876042#0_0006d01a" type="motorcycle" begin="0" end="3600" vehsPerHour="105.50" departLane="best" departPos="random" departSpeed="0" from="222682222#1" to="198876042#0"/>
  <flow id="car_193253433#2_198876043#0_0006d01a" type="car" begin="0" end="3600" vehsPerHour="40.97" departLane="best" departPos="random" departSpeed="0" from="193253433#2" to="198876043#0"/>
  <flow id="car_193253433#2_28231434_0006d01a" type="car" begin="0" end="3600" vehsPerHour="33.79" departLane="best" departPos="random" departSpeed="0" from="193253433#2" to="28231434"/>
  <flow id="car_193253433#2_23241821#0_0006d01a" type="car" begin="0" end="3600" vehsPerHour="33.23" departLane="best" departPos="random" departSpeed="0" from="193253433#2" to="23241821#0"/>
  <flow id="car_193253433#2_198876042#0_0006d01a" type="car" begin="0" end="3600" vehsPerHour="27.73" departLane="best" departPos="random" departSpeed="0" from="193253433#2" to="198876042#0"/>
  <flow id="car_193253433#2_193253427#0_0006d01a" type="car" begin="0" end="3600" vehsPerHour="23.69" departLane="best" departPos="random" departSpeed="0" from="193253433#2" to="193253427#0"/>
  <flow id="motorcycle_193253433#2_198876043#0_0006d01a" type="motorcycle" begin="0" end="3600" vehsPerHour="110.68" departLane="best" departPos="random" departSpeed="0" from="193253433#2" to="198876043#0"/>
  <flow id="motorcycle_193253433#2_28231434_0006d01a" type="motorcycle" begin="0" end="3600" vehsPerHour="97.35" departLane="best" departPos="random" departSpeed="0" from="193253433#2" to="28231434"/>
  <flow id="motorcycle_193253433#2_23241821#0_0006d01a" type="motorcycle" begin="0" end="3600" vehsPerHour="94.41" departLane="best" departPos="random" departSpeed="0" from="193253433#2" to="23241821#0"/>
  <flow id="motorcycle_193253433#2_198876042#0_0006d01a" type="motorcycle" begin="0" end="3600" vehsPerHour="78.84" departLane="best" departPos="random" departSpeed="0" from="193253433#2" to="198876042#0"/>
  <flow id="motorcycle_193253433#2_193253427#0_0006d01a" type="motorcycle" begin="0" end="3600" vehsPerHour="68.50" departLane="best" departPos="random" departSpeed="0" from="193253433#2" to="193253427#0"/>
  <flow id="car_198876045#1_28231434_0006d01a" type="car" begin="0" end="3600" vehsPerHour="32.80" departLane="best" departPos="random" departSpeed="0" from="198876045#1" to="28231434"/>
  <flow id="car_198876045#1_23241821#0_0006d01a" type="car" begin="0" end="3600" vehsPerHour="29.83" departLane="best" departPos="random" departSpeed="0" from="198876045#1" to="23241821#0"/>
  <flow id="car_198876045#1_198876042#0_0006d01a" type="car" begin="0" end="3600" vehsPerHour="27.35" departLane="best" departPos="random" departSpeed="0" from="198876045#1" to="198876042#0"/>
  <flow id="car_198876045#1_193253427#0_0006d01a" type="car" begin="0" end="3600" vehsPerHour="23.30" departLane="best" departPos="random" departSpeed="0" from="198876045#1" to="193253427#0"/>
  <flow id="car_198876045#1_198876043#2_0006d01a" type="car" begin="0" end="3600" vehsPerHour="21.19" departLane="best" departPos="random" departSpeed="0" from="198876045#1" to="198876043#2"/>
  <flow id="motorcycle_198876045#1_28231434_0006d01a" type="motorcycle" begin="0" end="3600" vehsPerHour="100.50" departLane="best" departPos="random" departSpeed="0" from="198876045#1" to="28231434"/>
  <flow id="motorcycle_198876045#1_23241821#0_0006d01a" type="motorcycle" begin="0" end="3600" vehsPerHour="85.15" departLane="best" departPos="random" departSpeed="0" from="198876045#1" to="23241821#0"/>
  <flow id="motorcycle_198876045#1_198876042#0_0006d01a" type="motorcycle" begin="0" end="3600" vehsPerHour="78.81" departLane="best" departPos="random" departSpeed="0" from="198876045#1" to="198876042#0"/>
  <flow id="motorcycle_198876045#1_193253427#0_0006d01a" type="motorcycle" begin="0" end="3600" vehsPerHour="72.00" departLane="best" departPos="random" departSpeed="0" from="198876045#1" to="193253427#0"/>
  <flow id="motorcycle_198876045#1_198876043#2_0006d01a" type="motorcycle" begin="0" end="3600" vehsPerHour="69.63" departLane="best" departPos="random" departSpeed="0" from="198876045#1" to="198876043#2"/>
  <flow id="car_-28231434_23241821#0_0006d01a" type="car" begin="0" end="3600" vehsPerHour="23.54" departLane="best" departPos="random" departSpeed="0" from="-28231434" to="23241821#0"/>
  <flow id="car_-28231434_198876042#0_0006d01a" type="car" begin="0" end="3600" vehsPerHour="20.76" departLane="best" departPos="random" departSpeed="0" from="-28231434" to="198876042#0"/>
  <flow id="car_-28231434_193253427#0_0006d01a" type="car" begin="0" end="3600" vehsPerHour="16.87" departLane="best" departPos="random" departSpeed="0" from="-28231434" to="193253427#0"/>
  <flow id="car_-28231434_198876043#2_0006d01a" type="car" begin="0" end="3600" vehsPerHour="16.11" departLane="best" departPos="random" departSpeed="0" from="-28231434" to="198876043#2"/>
  <flow id="car_-28231434_28231434_0006d01a" type="car" begin="0" end="3600" vehsPerHour="13.68" departLane="best" departPos="random" departSpeed="0" from="-28231434" to="28231434"/>
  <flow id="motorcycle_-28231434_23241821#0_0006d01a" type="motorcycle" begin="0" end="3600" vehsPerHour="66.34" departLane="best" departPos="random" departSpeed="0" from="-28231434" to="23241821#0"/>
  <flow id="motorcycle_-28231434_198876042#0_0006d01a" type="motorcycle" begin="0" end="3600" vehsPerHour="62.34" departLane="best" departPos="random" departSpeed="0" from="-28231434" to="198876042#0"/>
  <flow id="motorcycle_-28231434_193253427#0_0006d01a" type="motorcycle" begin="0" end="3600" vehsPerHour="54.10" departLane="best" departPos="random" departSpeed="0" from="-28231434" to="193253427#0"/>
  <flow id="motorcycle_-28231434_198876043#2_0006d01a" type="motorcycle" begin="0" end="3600" vehsPerHour="46.08" departLane="best" departPos="random" departSpeed="0" from="-28231434" to="198876043#2"/>
  <flow id="motorcycle_-28231434_28231434_0006d01a" type="motorcycle" begin="0" end="3600" vehsPerHour="41.23" departLane="best" departPos="random" departSpeed="0" from="-28231434" to="28231434"/>
  <flow id="car_-55029244#0_198876042#0_0006d01a" type="car" begin="0" end="3600" vehsPerHour="28.21" departLane="best" departPos="random" departSpeed="0" from="-55029244#0" to="198876042#0"/>
  <flow id="car_-55029244#0_193253427#0_0006d01a" type="car" begin="0" end="3600" vehsPerHour="23.13" departLane="best" departPos="random" departSpeed="0" from="-55029244#0" to="193253427#0"/>
  <flow id="car_-55029244#0_198876043#2_0006d01a" type="car" begin="0" end="3600" vehsPerHour="19.68" departLane="best" departPos="random" departSpeed="0" from="-55029244#0" to="198876043#2"/>
  <flow id="car_-55029244#0_28231434_0006d01a" type="car" begin="0" end="3600" vehsPerHour="16.56" departLane="best" departPos="random" departSpeed="0" from="-55029244#0" to="28231434"/>
  <flow id="car_-55029244#0_23241821#0_0006d01a" type="car" begin="0" end="3600" vehsPerHour="13.09" departLane="best" departPos="random" departSpeed="0" from="-55029244#0" to="23241821#0"/>
  <flow id="motorcycle_-55029244#0_198876042#0_0006d01a" type="motorcycle" begin="0" end="3600" vehsPerHour="81.87" departLane="best" departPos="random" departSpeed="0" from="-55029244#0" to="198876042#0"/>
  <flow id="motorcycle_-55029244#0_193253427#0_0006d01a" type="motorcycle" begin="0" end="3600" vehsPerHour="66.67" departLane="best" departPos="random" departSpeed="0" from="-55029244#0" to="193253427#0"/>
  <flow id="motorcycle_-55029244#0_198876043#2_0006d01a" type="motorcycle" begin="0" end="3600" vehsPerHour="62.50" departLane="best" departPos="random" departSpeed="0" from="-55029244#0" to="198876043#2"/>
  <flow id="motorcycle_-55029244#0_28231434_0006d01a" type="motorcycle" begin="0" end="3600" vehsPerHour="55.46" departLane="best" departPos="random" departSpeed="0" from="-55029244#0" to="28231434"/>
  <flow id="motorcycle_-55029244#0_23241821#0_0006d01a" type="motorcycle" begin="0" end="3600" vehsPerHour="45.23" departLane="best" departPos="random" departSpeed="0" from="-55029244#0" to="23241821#0"/>
  <flow id="car_34241530#0_198876042#0_0006d01a" type="car" begin="0" end="3600" vehsPerHour="25.68" departLane="best" departPos="random" departSpeed="0" from="34241530#0" to="198876042#0"/>
  <flow id="car_34241530#0_193253427#0_0006d01a" type="car" begin="0" end="3600" vehsPerHour="24.06" departLane="best" departPos="random" departSpeed="0" from="34241530#0" to="193253427#0"/>
  <flow id="car_34241530#0_198876043#2_0006d01a" type="car" begin="0" end="3600" vehsPerHour="21.11" departLane="best" departPos="random" departSpeed="0" from="34241530#0" to="198876043#2"/>
  <flow id="car_34241530#0_28231434_0006d01a" type="car" begin="0" end="3600" vehsPerHour="16.01" departLane="best" departPos="random" departSpeed="0" from="34241530#0" to="28231434"/>
  <flow id="car_34241530#0_23241821#0_0006d01a" type="car" begin="0" end="3600" vehsPerHour="13.10" departLane="best" departPos="random" departSpeed="0" from="34241530#0" to="23241821#0"/>
  <flow id="motorcycle_34241530#0_198876042#0_0006d01a" type="motorcycle" begin="0" end="3600" vehsPerHour="77.14" departLane="best" departPos="random" departSpeed="0" from="34241530#0" to="198876042#0"/>
  <flow id="motorcycle_34241530#0_193253427#0_0006d01a" type="motorcycle" begin="0" end="3600" vehsPerHour="65.56" departLane="best" departPos="random" departSpeed="0" from="34241530#0" to="193253427#0"/>
  <flow id="motorcycle_34241530#0_198876043#2_0006d01a" type="motorcycle" begin="0" end="3600" vehsPerHour="61.60" departLane="best" departPos="random" departSpeed="0" from="34241530#0" to="198876043#2"/>
  <flow id="motorcycle_34241530#0_28231434_0006d01a" type="motorcycle" begin="0" end="3600" vehsPerHour="52.22" departLane="best" departPos="random" departSpeed="0" from="34241530#0" to="28231434"/>
  <flow id="motorcycle_34241530#0_23241821#0_0006d01a" type="motorcycle" begin="0" end="3600" vehsPerHour="44.87" departLane="best" departPos="random" departSpeed="0" from="34241530#0" to="23241821#0"/>
  <flow id="truck_34241530#0_198876042#0_0006d01a" type="truck" begin="0" end="3600" vehsPerHour="12.15" departLane="best" departPos="random" departSpeed="0" from="34241530#0" to="198876042#0"/>
</routes>
