<routes>
<vType id="car" vClass="passenger" accel="2.6" decel="4.5" sigma="0.5" length="5.0" maxSpeed="13.9"/>
<vType id="motorcycle" vClass="motorcycle" accel="3.0" decel="5.0" sigma="0.5" length="2.0" maxSpeed="14.0"/>
<vType id="truck" vClass="truck" accel="1.2" decel="3.5" sigma="0.5" length="12.0" maxSpeed="10.0"/>

  <flow id="car_222682222#1_193253427#0_00074b5f" type="car" begin="0" end="3600" vehsPerHour="58.93" departLane="best" departPos="random" departSpeed="0" from="222682222#1" to="193253427#0"/>
  <flow id="car_222682222#1_198876043#0_00074b5f" type="car" begin="0" end="3600" vehsPerHour="51.93" departLane="best" departPos="random" departSpeed="0" from="222682222#1" to="198876043#0"/>
  <flow id="car_222682222#1_28231434_00074b5f" type="car" begin="0" end="3600" vehsPerHour="49.97" departLane="best" departPos="random" departSpeed="0" from="222682222#1" to="28231434"/>
  <flow id="car_222682222#1_23241821#0_00074b5f" type="car" begin="0" end="3600" vehsPerHour="40.26" departLane="best" departPos="random" departSpeed="0" from="222682222#1" to="23241821#0"/>
  <flow id="car_222682222#1_198876042#0_00074b5f" type="car" begin="0" end="3600" vehsPerHour="34.68" departLane="best" departPos="random" departSpeed="0" from="222682222#1" to="198876042#0"/>
  <flow id="motorcycle_222682222#1_193253427#0_00074b5f" type="motorcycle" begin="0" end="3600" vehsPerHour="177.81" departLane="best" departPos="random" departSpeed="0" from="222682222#1" to="193253427#0"/>
  <flow id="motorcycle_222682222#1_198876043#0_00074b5f" type="motorcycle" begin="0" end="3600" vehsPerHour="159.93" departLane="best" departPos="random" departSpeed="0" from="222682222#1" to="198876043#0"/>
  <flow id="motorcycle_222682222#1_28231434_00074b5f" type="motorcycle" begin="0" end="3600" vehsPerHour="144.14" departLane="best" departPos="random" departSpeed="0" from="222682222#1" to="28231434"/>
  <flow id="motorcycle_222682222#1_23241821#0_00074b5f" type="motorcycle" begin="0" end="3600" vehsPerHour="117.80" departLane="best" departPos="random" departSpeed="0" from="222682222#1" to="23241821#0"/>
  <flow id="motorcycle_222682222#1_198876042#0_00074b5f" type="motorcycle" begin="0" end="3600" vehsPerHour="101.32" departLane="best" departPos="random" departSpeed="0" from="222682222#1" to="198876042#0"/>
  <flow id="car_193253433#2_198876043#0_00074b5f" type="car" begin="0" end="3600" vehsPerHour="39.21" departLane="best" departPos="random" departSpeed="0" from="193253433#2" to="198876043#0"/>
  <flow id="car_193253433#2_28231434_00074b5f" type="car" begin="0" end="3600" vehsPerHour="34.58" departLane="best" departPos="random" departSpeed="0" from="193253433#2" to="28231434"/>
  <flow id="car_193253433#2_23241821#0_00074b5f" type="car" begin="0" end="3600" vehsPerHour="34.68" departLane="best" departPos="random" departSpeed="0" from="193253433#2" to="23241821#0"/>
  <flow id="car_193253433#2_198876042#0_00074b5f" type="car" begin="0" end="3600" vehsPerHour="26.94" departLane="best" departPos="random" departSpeed="0" from="193253433#2" to="198876042#0"/>
  <flow id="car_193253433#2_193253427#0_00074b5f" type="car" begin="0" end="3600" vehsPerHour="22.51" departLane="best" departPos="random" departSpeed="0" from="193253433#2" to="193253427#0"/>
  <flow id="motorcycle_193253433#2_198876043#0_00074b5f" type="motorcycle" begin="0" end="3600" vehsPerHour="113.51" departLane="best" departPos="random" departSpeed="0" from="193253433#2" to="198876043#0"/>
  <flow id="motorcycle_193253433#2_28231434_00074b5f" type="motorcycle" begin="0" end="3600" vehsPerHour="105.13" departLane="best" departPos="random" departSpeed="0" from="193253433#2" to="28231434"/>
  <flow id="motorcycle_193253433#2_23241821#0_00074b5f" type="motorcycle" begin="0" end="3600" vehsPerHour="96.80" departLane="best" departPos="random" departSpeed="0" from="193253433#2" to="23241821#0"/>
  <flow id="motorcycle_193253433#2_198876042#0_00074b5f" type="motorcycle" begin="0" end="3600" vehsPerHour="79.87" departLane="best" departPos="random" departSpeed="0" from="193253433#2" to="198876042#0"/>
  <flow id="motorcycle_193253433#2_193253427#0_00074b5f" type="motorcycle" begin="0" end="3600" vehsPerHour="67.46" departLane="best" departPos="random" departSpeed="0" from="193253433#2" to="193253427#0"/>
  <flow id="car_198876045#1_28231434_00074b5f" type="car" begin="0" end="3600" vehsPerHour="32.02" departLane="best" departPos="random" departSpeed="0" from="198876045#1" to="28231434"/>
  <flow id="car_198876045#1_23241821#0_00074b5f" type="car" begin="0" end="3600" vehsPerHour="31.70" departLane="best" departPos="random" departSpeed="0" from="198876045#1" to="23241821#0"/>
  <flow id="car_198876045#1_198876042#0_00074b5f" type="car" begin="0" end="3600" vehsPerHour="25.66" departLane="best" departPos="random" departSpeed="0" from="198876045#1" to="198876042#0"/>
  <flow id="car_198876045#1_193253427#0_00074b5f" type="car" begin="0" end="3600" vehsPerHour="23.59" departLane="best" departPos="random" departSpeed="0" from="198876045#1" to="193253427#0"/>
  <flow id="car_198876045#1_198876043#2_00074b5f" type="car" begin="0" end="3600" vehsPerHour="20.98" departLane="best" departPos="random" departSpeed="0" from="198876045#1" to="198876043#2"/>
  <flow id="motorcycle_198876045#1_28231434_00074b5f" type="motorcycle" begin="0" end="3600" vehsPerHour="100.31" departLane="best" departPos="random" departSpeed="0" from="198876045#1" to="28231434"/>
  <flow id="motorcycle_198876045#1_23241821#0_00074b5f" type="motorcycle" begin="0" end="3600" vehsPerHour="90.87" departLane="best" departPos="random" departSpeed="0" from="198876045#1" to="23241821#0"/>
  <flow id="motorcycle_198876045#1_198876042#0_00074b5f" type="motorcycle" begin="0" end="3600" vehsPerHour="81.51" departLane="best" departPos="random" departSpeed="0" from="198876045#1" to="198876042#0"/>
  <flow id="motorcycle_198876045#1_193253427#0_00074b5f" type="motorcycle" begin="0" end="3600" vehsPerHour="76.16" departLane="best" departPos="random" departSpeed="0" from="198876045#1" to="193253427#0"/>
  <flow id="motorcycle_198876045#1_198876043#2_00074b5f" type="motorcycle" begin="0" end="3600" vehsPerHour="68.34" departLane="best" departPos="random" departSpeed="0" from="198876045#1" to="198876043#2"/>
  <flow id="car_-28231434_23241821#0_00074b5f" type="car" begin="0" end="3600" vehsPerHour="24.06" departLane="best" departPos="random" departSpeed="0" from="-28231434" to="23241821#0"/>
  <flow id="car_-28231434_198876042#0_00074b5f" type="car" begin="0" end="3600" vehsPerHour="20.49" departLane="best" departPos="random" departSpeed="0" from="-28231434" to="198876042#0"/>
  <flow id="car_-28231434_193253427#0_00074b5f" type="car" begin="0" end="3600" vehsPerHour="16.48" departLane="best" departPos="random" departSpeed="0" from="-28231434" to="193253427#0"/>
  <flow id="car_-28231434_198876043#2_00074b5f" type="car" begin="0" end="3600" vehsPerHour="17.41" departLane="best" departPos="random" departSpeed="0" from="-28231434" to="198876043#2"/>
  <flow id="car_-28231434_28231434_00074b5f" type="car" begin="0" end="3600" vehsPerHour="12.88" departLane="best" departPos="random" departSpeed="0" from="-28231434" to="28231434"/>
  <flow id="motorcycle_-28231434_23241821#0_00074b5f" type="motorcycle" begin="0" end="3600" vehsPerHour="69.11" departLane="best" departPos="random" departSpeed="0" from="-28231434" to="23241821#0"/>
  <flow id="motorcycle_-28231434_198876042#0_00074b5f" type="motorcycle" begin="0" end="3600" vehsPerHour="60.24" departLane="best" departPos="random" departSpeed="0" from="-28231434" to="198876042#0"/>
  <flow id="motorcycle_-28231434_193253427#0_00074b5f" type="motorcycle" begin="0" end="3600" vehsPerHour="53.02" departLane="best" departPos="random" departSpeed="0" from="-28231434" to="193253427#0"/>
  <flow id="motorcycle_-28231434_198876043#2_00074b5f" type="motorcycle" begin="0" end="3600" vehsPerHour="46.08" departLane="best" departPos="random" departSpeed="0" from="-28231434" to="198876043#2"/>
  <flow id="motorcycle_-28231434_28231434_00074b5f" type="motorcycle" begin="0" end="3600" vehsPerHour="39.79" departLane="best" departPos="random" departSpeed="0" from="-28231434" to="28231434"/>
  <flow id="car_-55029244#0_198876042#0_00074b5f" type="car" begin="0" end="3600" vehsPerHour="28.18" departLane="best" departPos="random" departSpeed="0" from="-55029244#0" to="198876042#0"/>
  <flow id="car_-55029244#0_193253427#0_00074b5f" type="car" begin="0" end="3600" vehsPerHour="22.68" departLane="best" departPos="random" departSpeed="0" from="-55029244#0" to="193253427#0"/>
  <flow id="car_-55029244#0_198876043#2_00074b5f" type="car" begin="0" end="3600" vehsPerHour="19.74" departLane="best" departPos="random" departSpeed="0" from="-55029244#0" to="198876043#2"/>
  <flow id="car_-55029244#0_28231434_00074b5f" type="car" begin="0" end="3600" vehsPerHour="16.67" departLane="best" departPos="random" departSpeed="0" from="-55029244#0" to="28231434"/>
  <flow id="car_-55029244#0_23241821#0_00074b5f" type="car" begin="0" end="3600" vehsPerHour="13.86" departLane="best" departPos="random" departSpeed="0" from="-55029244#0" to="23241821#0"/>
  <flow id="motorcycle_-55029244#0_198876042#0_00074b5f" type="motorcycle" begin="0" end="3600" vehsPerHour="82.41" departLane="best" departPos="random" departSpeed="0" from="-55029244#0" to="198876042#0"/>
  <flow id="motorcycle_-55029244#0_193253427#0_00074b5f" type="motorcycle" begin="0" end="3600" vehsPerHour="66.97" departLane="best" departPos="random" departSpeed="0" from="-55029244#0" to="193253427#0"/>
  <flow id="motorcycle_-55029244#0_198876043#2_00074b5f" type="motorcycle" begin="0" end="3600" vehsPerHour="59.16" departLane="best" departPos="random" departSpeed="0" from="-55029244#0" to="198876043#2"/>
  <flow id="motorcycle_-55029244#0_28231434_00074b5f" type="motorcycle" begin="0" end="3600" vehsPerHour="56.26" departLane="best" departPos="random" departSpeed="0" from="-55029244#0" to="28231434"/>
  <flow id="motorcycle_-55029244#0_23241821#0_00074b5f" type="motorcycle" begin="0" end="3600" vehsPerHour="45.15" departLane="best" departPos="random" departSpeed="0" from="-55029244#0" to="23241821#0"/>
  <flow id="car_34241530#0_198876042#0_00074b5f" type="car" begin="0" end="3600" vehsPerHour="25.90" departLane="best" departPos="random" departSpeed="0" from="34241530#0" to="198876042#0"/>
  <flow id="car_34241530#0_193253427#0_00074b5f" type="car" begin="0" end="3600" vehsPerHour="23.10" departLane="best" departPos="random" departSpeed="0" from="34241530#0" to="193253427#0"/>
  <flow id="car_34241530#0_198876043#2_00074b5f" type="car" begin="0" end="3600" vehsPerHour="20.96" departLane="best" departPos="random" departSpeed="0" from="34241530#0" to="198876043#2"/>
  <flow id="car_34241530#0_28231434_00074b5f" type="car" begin="0" end="3600" vehsPerHour="16.09" departLane="best" departPos="random" departSpeed="0" from="34241530#0" to="28231434"/>
  <flow id="car_34241530#0_23241821#0_00074b5f" type="car" begin="0" end="3600" vehsPerHour="13.26" departLane="best" departPos="random" departSpeed="0" from="34241530#0" to="23241821#0"/>
  <flow id="motorcycle_34241530#0_198876042#0_00074b5f" type="motorcycle" begin="0" end="3600" vehsPerHour="83.09" departLane="best" departPos="random" departSpeed="0" from="34241530#0" to="198876042#0"/>
  <flow id="motorcycle_34241530#0_193253427#0_00074b5f" type="motorcycle" begin="0" end="3600" vehsPerHour="66.82" departLane="best" departPos="random" departSpeed="0" from="34241530#0" to="193253427#0"/>
  <flow id="motorcycle_34241530#0_198876043#2_00074b5f" type="motorcycle" begin="0" end="3600" vehsPerHour="63.20" departLane="best" departPos="random" departSpeed="0" from="34241530#0" to="198876043#2"/>
  <flow id="motorcycle_34241530#0_28231434_00074b5f" type="motorcycle" begin="0" end="3600" vehsPerHour="52.17" departLane="best" departPos="random" departSpeed="0" from="34241530#0" to="28231434"/>
  <flow id="motorcycle_34241530#0_23241821#0_00074b5f" type="motorcycle" begin="0" end="3600" vehsPerHour="47.05" departLane="best" departPos="random" departSpeed="0" from="34241530#0" to="23241821#0"/>
  <flow id="truck_34241530#0_198876042#0_00074b5f" type="truck" begin="0" end="3600" vehsPerHour="12.15" departLane="best" departPos="random" departSpeed="0" from="34241530#0" to="198876042#0"/>
</routes>
