<routes>
<vType id="car" vClass="passenger" accel="2.6" decel="4.5" sigma="0.5" length="5.0" maxSpeed="13.9"/>
<vType id="motorcycle" vClass="motorcycle" accel="3.0" decel="5.0" sigma="0.5" length="2.0" maxSpeed="14.0"/>
<vType id="truck" vClass="truck" accel="1.2" decel="3.5" sigma="0.5" length="12.0" maxSpeed="10.0"/>

  <flow id="car_222682222#1_193253427#0_000d3b02" type="car" begin="0" end="3600" vehsPerHour="59.21" departLane="best" departPos="random" departSpeed="0" from="222682222#1" to="193253427#0"/>
  <flow id="car_222682222#1_198876043#0_000d3b02" type="car" begin="0" end="3600" vehsPerHour="52.82" departLane="best" departPos="random" departSpeed="0" from="222682222#1" to="198876043#0"/>
  <flow id="car_222682222#1_28231434_000d3b02" type="car" begin="0" end="3600" vehsPerHour="51.97" departLane="best" departPos="random" departSpeed="0" from="222682222#1" to="28231434"/>
  <flow id="car_222682222#1_23241821#0_000d3b02" type="car" begin="0" end="3600" vehsPerHour="41.75" departLane="best" departPos="random" departSpeed="0" from="222682222#1" to="23241821#0"/>
  <flow id="car_222682222#1_198876042#0_000d3b02" type="car" begin="0" end="3600" vehsPerHour="35.34" departLane="best" departPos="random" departSpeed="0" from="222682222#1" to="198876042#0"/>
  <flow id="motorcycle_222682222#1_193253427#0_000d3b02" type="motorcycle" begin="0" end="3600" vehsPerHour="177.21" departLane="best" departPos="random" departSpeed="0" from="222682222#1" to="193253427#0"/>
  <flow id="motorcycle_222682222#1_198876043#0_000d3b02" type="motorcycle" begin="0" end="3600" vehsPerHour="158.98" departLane="best" departPos="random" departSpeed="0" from="222682222#1" to="198876043#0"/>
  <flow id="motorcycle_222682222#1_28231434_000d3b02" type="motorcycle" begin="0" end="3600" vehsPerHour="137.59" departLane="best" departPos="random" departSpeed="0" from="222682222#1" to="28231434"/>
  <flow id="motorcycle_222682222#1_23241821#0_000d3b02" type="motorcycle" begin="0" end="3600" vehsPerHour="110.57" departLane="best" departPos="random" departSpeed="0" from="222682222#1" to="23241821#0"/>
  <flow id="motorcycle_222682222#1_198876042#0_000d3b02" type="motorcycle" begin="0" end="3600" vehsPerHour="99.23" departLane="best" departPos="random" departSpeed="0" from="222682222#1" to="198876042#0"/>
  <flow id="car_193253433#2_198876043#0_000d3b02" type="car" begin="0" end="3600" vehsPerHour="39.77" departLane="best" departPos="random" departSpeed="0" from="193253433#2" to="198876043#0"/>
  <flow id="car_193253433#2_28231434_000d3b02" type="car" begin="0" end="3600" vehsPerHour="35.15" departLane="best" departPos="random" departSpeed="0" from="193253433#2" to="28231434"/>
  <flow id="car_193253433#2_23241821#0_000d3b02" type="car" begin="0" end="3600" vehsPerHour="33.89" departLane="best" departPos="random" departSpeed="0" from="193253433#2" to="23241821#0"/>
  <flow id="car_193253433#2_198876042#0_000d3b02" type="car" begin="0" end="3600" vehsPerHour="26.31" departLane="best" departPos="random" departSpeed="0" from="193253433#2" to="198876042#0"/>
  <flow id="car_193253433#2_193253427#0_000d3b02" type="car" begin="0" end="3600" vehsPerHour="23.51" departLane="best" departPos="random" departSpeed="0" from="193253433#2" to="193253427#0"/>
  <flow id="motorcycle_193253433#2_198876043#0_000d3b02" type="motorcycle" begin="0" end="3600" vehsPerHour="113.29" departLane="best" departPos="random" departSpeed="0" from="193253433#2" to="198876043#0"/>
  <flow id="motorcycle_193253433#2_28231434_000d3b02" type="motorcycle" begin="0" end="3600" vehsPerHour="105.61" departLane="best" departPos="random" departSpeed="0" from="193253433#2" to="28231434"/>
  <flow id="motorcycle_193253433#2_23241821#0_000d3b02" type="motorcycle" begin="0" end="3600" vehsPerHour="91.56" departLane="best" departPos="random" departSpeed="0" from="193253433#2" to="23241821#0"/>
  <flow id="motorcycle_193253433#2_198876042#0_000d3b02" type="motorcycle" begin="0" end="3600" vehsPerHour="84.22" departLane="best" departPos="random" departSpeed="0" from="193253433#2" to="198876042#0"/>
  <flow id="motorcycle_193253433#2_193253427#0_000d3b02" type="motorcycle" begin="0" end="3600" vehsPerHour="70.10" departLane="best" departPos="random" departSpeed="0" from="193253433#2" to="193253427#0"/>
  <flow id="car_198876045#1_28231434_000d3b02" type="car" begin="0" end="3600" vehsPerHour="33.24" departLane="best" departPos="random" departSpeed="0" from="198876045#1" to="28231434"/>
  <flow id="car_198876045#1_23241821#0_000d3b02" type="car" begin="0" end="3600" vehsPerHour="30.34" departLane="best" departPos="random" departSpeed="0" from="198876045#1" to="23241821#0"/>
  <flow id="car_198876045#1_198876042#0_000d3b02" type="car" begin="0" end="3600" vehsPerHour="27.37" departLane="best" departPos="random" departSpeed="0" from="198876045#1" to="198876042#0"/>
  <flow id="car_198876045#1_193253427#0_000d3b02" type="car" begin="0" end="3600" vehsPerHour="23.38" departLane="best" departPos="random" departSpeed="0" from="198876045#1" to="193253427#0"/>
  <flow id="car_198876045#1_198876043#2_000d3b02" type="car" begin="0" end="3600" vehsPerHour="20.88" departLane="best" departPos="random" departSpeed="0" from="198876045#1" to="198876043#2"/>
  <flow id="motorcycle_198876045#1_28231434_000d3b02" type="motorcycle" begin="0" end="3600" vehsPerHour="97.90" departLane="best" departPos="random" departSpeed="0" from="198876045#1" to="28231434"/>
  <flow id="motorcycle_198876045#1_23241821#0_000d3b02" type="motorcycle" begin="0" end="3600" vehsPerHour="91.42" departLane="best" departPos="random" departSpeed="0" from="198876045#1" to="23241821#0"/>
  <flow id="motorcycle_198876045#1_198876042#0_000d3b02" type="motorcycle" begin="0" end="3600" vehsPerHour="81.80" departLane="best" departPos="random" departSpeed="0" from="198876045#1" to="198876042#0"/>
  <flow id="motorcycle_198876045#1_193253427#0_000d3b02" type="motorcycle" begin="0" end="3600" vehsPerHour="74.00" departLane="best" departPos="random" departSpeed="0" from="198876045#1" to="193253427#0"/>
  <flow id="motorcycle_198876045#1_198876043#2_000d3b02" type="motorcycle" begin="0" end="3600" vehsPerHour="68.03" departLane="best" departPos="random" departSpeed="0" from="198876045#1" to="198876043#2"/>
  <flow id="car_-28231434_23241821#0_000d3b02" type="car" begin="0" end="3600" vehsPerHour="22.74" departLane="best" departPos="random" departSpeed="0" from="-28231434" to="23241821#0"/>
  <flow id="car_-28231434_198876042#0_000d3b02" type="car" begin="0" end="3600" vehsPerHour="19.71" departLane="best" departPos="random" departSpeed="0" from="-28231434" to="198876042#0"/>
  <flow id="car_-28231434_193253427#0_000d3b02" type="car" begin="0" end="3600" vehsPerHour="16.94" departLane="best" departPos="random" departSpeed="0" from="-28231434" to="193253427#0"/>
  <flow id="car_-28231434_198876043#2_000d3b02" type="car" begin="0" end="3600" vehsPerHour="16.93" departLane="best" departPos="random" departSpeed="0" from="-28231434" to="198876043#2"/>
  <flow id="car_-28231434_28231434_000d3b02" type="car" begin="0" end="3600" vehsPerHour="13.69" departLane="best" departPos="random" departSpeed="0" from="-28231434" to="28231434"/>
  <flow id="motorcycle_-28231434_23241821#0_000d3b02" type="motorcycle" begin="0" end="3600" vehsPerHour="65.83" departLane="best" departPos="random" departSpeed="0" from="-28231434" to="23241821#0"/>
  <flow id="motorcycle_-28231434_198876042#0_000d3b02" type="motorcycle" begin="0" end="3600" vehsPerHour="61.84" departLane="best" departPos="random" departSpeed="0" from="-28231434" to="198876042#0"/>
  <flow id="motorcycle_-28231434_193253427#0_000d3b02" type="motorcycle" begin="0" end="3600" vehsPerHour="54.90" departLane="best" departPos="random" departSpeed="0" from="-28231434" to="193253427#0"/>
  <flow id="motorcycle_-28231434_198876043#2_000d3b02" type="motorcycle" begin="0" end="3600" vehsPerHour="45.59" departLane="best" departPos="random" departSpeed="0" from="-28231434" to="198876043#2"/>
  <flow id="motorcycle_-28231434_28231434_000d3b02" type="motorcycle" begin="0" end="3600" vehsPerHour="39.54" departLane="best" departPos="random" departSpeed="0" from="-28231434" to="28231434"/>
  <flow id="car_-55029244#0_198876042#0_000d3b02" type="car" begin="0" end="3600" vehsPerHour="28.00" departLane="best" departPos="random" departSpeed="0" from="-55029244#0" to="198876042#0"/>
  <flow id="car_-55029244#0_193253427#0_000d3b02" type="car" begin="0" end="3600" vehsPerHour="22.58" departLane="best" departPos="random" departSpeed="0" from="-55029244#0" to="193253427#0"/>
  <flow id="car_-55029244#0_198876043#2_000d3b02" type="car" begin="0" end="3600" vehsPerHour="21.21" departLane="best" departPos="random" departSpeed="0" from="-55029244#0" to="198876043#2"/>
  <flow id="car_-55029244#0_28231434_000d3b02" type="car" begin="0" end="3600" vehsPerHour="17.55" departLane="best" departPos="random" departSpeed="0" from="-55029244#0" to="28231434"/>
  <flow id="car_-55029244#0_23241821#0_000d3b02" type="car" begin="0" end="3600" vehsPerHour="13.56" departLane="best" departPos="random" departSpeed="0" from="-55029244#0" to="23241821#0"/>
  <flow id="motorcycle_-55029244#0_198876042#0_000d3b02" type="motorcycle" begin="0" end="3600" vehsPerHour="79.30" departLane="best" departPos="random" departSpeed="0" from="-55029244#0" to="198876042#0"/>
  <flow id="motorcycle_-55029244#0_193253427#0_000d3b02" type="motorcycle" begin="0" end="3600" vehsPerHour="68.49" departLane="best" departPos="random" departSpeed="0" from="-55029244#0" to="193253427#0"/>
  <flow id="motorcycle_-55029244#0_198876043#2_000d3b02" type="motorcycle" begin="0" end="3600" vehsPerHour="61.17" departLane="best" departPos="random" departSpeed="0" from="-55029244#0" to="198876043#2"/>
  <flow id="motorcycle_-55029244#0_28231434_000d3b02" type="motorcycle" begin="0" end="3600" vehsPerHour="56.15" departLane="best" departPos="random" departSpeed="0" from="-55029244#0" to="28231434"/>
  <flow id="motorcycle_-55029244#0_23241821#0_000d3b02" type="motorcycle" begin="0" end="3600" vehsPerHour="47.60" departLane="best" departPos="random" departSpeed="0" from="-55029244#0" to="23241821#0"/>
  <flow id="car_34241530#0_198876042#0_000d3b02" type="car" begin="0" end="3600" vehsPerHour="26.21" departLane="best" departPos="random" departSpeed="0" from="34241530#0" to="198876042#0"/>
  <flow id="car_34241530#0_193253427#0_000d3b02" type="car" begin="0" end="3600" vehsPerHour="23.81" departLane="best" departPos="random" departSpeed="0" from="34241530#0" to="193253427#0"/>
  <flow id="car_34241530#0_198876043#2_000d3b02" type="car" begin="0" end="3600" vehsPerHour="20.03" departLane="best" departPos="random" departSpeed="0" from="34241530#0" to="198876043#2"/>
  <flow id="car_34241530#0_28231434_000d3b02" type="car" begin="0" end="3600" vehsPerHour="16.56" departLane="best" departPos="random" departSpeed="0" from="34241530#0" to="28231434"/>
  <flow id="car_34241530#0_23241821#0_000d3b02" type="car" begin="0" end="3600" vehsPerHour="13.62" departLane="best" departPos="random" departSpeed="0" from="34241530#0" to="23241821#0"/>
  <flow id="motorcycle_34241530#0_198876042#0_000d3b02" type="motorcycle" begin="0" end="3600" vehsPerHour="84.86" departLane="best" departPos="random" departSpeed="0" from="34241530#0" to="198876042#0"/>
  <flow id="motorcycle_34241530#0_193253427#0_000d3b02" type="motorcycle" begin="0" end="3600" vehsPerHour="69.01" departLane="best" departPos="random" departSpeed="0" from="34241530#0" to="193253427#0"/>
  <flow id="motorcycle_34241530#0_198876043#2_000d3b02" type="motorcycle" begin="0" end="3600" vehsPerHour="61.16" departLane="best" departPos="random" departSpeed="0" from="34241530#0" to="198876043#2"/>
  <flow id="motorcycle_34241530#0_28231434_000d3b02" type="motorcycle" begin="0" end="3600" vehsPerHour="52.15" departLane="best" departPos="random" departSpeed="0" from="34241530#0" to="28231434"/>
  <flow id="motorcycle_34241530#0_23241821#0_000d3b02" type="motorcycle" begin="0" end="3600" vehsPerHour="45.76" departLane="best" departPos="random" departSpeed="0" from="34241530#0" to="23241821#0"/>
  <flow id="truck_34241530#0_198876042#0_000d3b02" type="truck" begin="0" end="3600" vehsPerHour="11.35" departLane="best" departPos="random" departSpeed="0" from="34241530#0" to="198876042#0"/>
</routes>
