<routes>
<vType id="car" vClass="passenger" accel="2.6" decel="4.5" sigma="0.5" length="5.0" maxSpeed="13.9"/>
<vType id="motorcycle" vClass="motorcycle" accel="3.0" decel="5.0" sigma="0.5" length="2.0" maxSpeed="14.0"/>
<vType id="truck" vClass="truck" accel="1.2" decel="3.5" sigma="0.5" length="12.0" maxSpeed="10.0"/>

  <flow id="car_222682222#1_193253427#0_000a039a" type="car" begin="0" end="3600" vehsPerHour="60.15" departLane="best" departPos="random" departSpeed="0" from="222682222#1" to="193253427#0"/>
  <flow id="car_222682222#1_198876043#0_000a039a" type="car" begin="0" end="3600" vehsPerHour="49.44" departLane="best" departPos="random" departSpeed="0" from="222682222#1" to="198876043#0"/>
  <flow id="car_222682222#1_28231434_000a039a" type="car" begin="0" end="3600" vehsPerHour="49.36" departLane="best" departPos="random" departSpeed="0" from="222682222#1" to="28231434"/>
  <flow id="car_222682222#1_23241821#0_000a039a" type="car" begin="0" end="3600" vehsPerHour="42.35" departLane="best" departPos="random" departSpeed="0" from="222682222#1" to="23241821#0"/>
  <flow id="car_222682222#1_198876042#0_000a039a" type="car" begin="0" end="3600" vehsPerHour="33.27" departLane="best" departPos="random" departSpeed="0" from="222682222#1" to="198876042#0"/>
  <flow id="motorcycle_222682222#1_193253427#0_000a039a" type="motorcycle" begin="0" end="3600" vehsPerHour="178.59" departLane="best" departPos="random" departSpeed="0" from="222682222#1" to="193253427#0"/>
  <flow id="motorcycle_222682222#1_198876043#0_000a039a" type="motorcycle" begin="0" end="3600" vehsPerHour="151.28" departLane="best" departPos="random" departSpeed="0" from="222682222#1" to="198876043#0"/>
  <flow id="motorcycle_222682222#1_28231434_000a039a" type="motorcycle" begin="0" end="3600" vehsPerHour="135.18" departLane="best" departPos="random" departSpeed="0" from="222682222#1" to="28231434"/>
  <flow id="motorcycle_222682222#1_23241821#0_000a039a" type="motorcycle" begin="0" end="3600" vehsPerHour="115.50" departLane="best" departPos="random" departSpeed="0" from="222682222#1" to="23241821#0"/>
  <flow id="motorcycle_222682222#1_198876042#0_000a039a" type="motorcycle" begin="0" end="3600" vehsPerHour="103.95" departLane="best" departPos="random" departSpeed="0" from="222682222#1" to="198876042#0"/>
  <flow id="car_193253433#2_198876043#0_000a039a" type="car" begin="0" end="3600" vehsPerHour="39.72" departLane="best" departPos="random" departSpeed="0" from="193253433#2" to="198876043#0"/>
  <flow id="car_193253433#2_28231434_000a039a" type="car" begin="0" end="3600" vehsPerHour="34.07" departLane="best" departPos="random" departSpeed="0" from="193253433#2" to="28231434"/>
  <flow id="car_193253433#2_23241821#0_000a039a" type="car" begin="0" end="3600" vehsPerHour="32.93" departLane="best" departPos="random" departSpeed="0" from="193253433#2" to="23241821#0"/>
  <flow id="car_193253433#2_198876042#0_000a039a" type="car" begin="0" end="3600" vehsPerHour="28.25" departLane="best" departPos="random" departSpeed="0" from="193253433#2" to="198876042#0"/>
  <flow id="car_193253433#2_193253427#0_000a039a" type="car" begin="0" end="3600" vehsPerHour="24.18" departLane="best" departPos="random" departSpeed="0" from="193253433#2" to="193253427#0"/>
  <flow id="motorcycle_193253433#2_198876043#0_000a039a" type="motorcycle" begin="0" end="3600" vehsPerHour="112.14" departLane="best" departPos="random" departSpeed="0" from="193253433#2" to="198876043#0"/>
  <flow id="motorcycle_193253433#2_28231434_000a039a" type="motorcycle" begin="0" end="3600" vehsPerHour="102.88" departLane="best" departPos="random" departSpeed="0" from="193253433#2" to="28231434"/>
  <flow id="motorcycle_193253433#2_23241821#0_000a039a" type="motorcycle" begin="0" end="3600" vehsPerHour="89.93" departLane="best" departPos="random" departSpeed="0" from="193253433#2" to="23241821#0"/>
  <flow id="motorcycle_193253433#2_198876042#0_000a039a" type="motorcycle" begin="0" end="3600" vehsPerHour="78.60" departLane="best" departPos="random" departSpeed="0" from="193253433#2" to="198876042#0"/>
  <flow id="motorcycle_193253433#2_193253427#0_000a039a" type="motorcycle" begin="0" end="3600" vehsPerHour="65.09" departLane="best" departPos="random" departSpeed="0" from="193253433#2" to="193253427#0"/>
  <flow id="car_198876045#1_28231434_000a039a" type="car" begin="0" end="3600" vehsPerHour="33.09" departLane="best" departPos="random" departSpeed="0" from="198876045#1" to="28231434"/>
  <flow id="car_198876045#1_23241821#0_000a039a" type="car" begin="0" end="3600" vehsPerHour="31.59" departLane="best" departPos="random" departSpeed="0" from="198876045#1" to="23241821#0"/>
  <flow id="car_198876045#1_198876042#0_000a039a" type="car" begin="0" end="3600" vehsPerHour="27.21" departLane="best" departPos="random" departSpeed="0" from="198876045#1" to="198876042#0"/>
  <flow id="car_198876045#1_193253427#0_000a039a" type="car" begin="0" end="3600" vehsPerHour="22.92" departLane="best" departPos="random" departSpeed="0" from="198876045#1" to="193253427#0"/>
  <flow id="car_198876045#1_198876043#2_000a039a" type="car" begin="0" end="3600" vehsPerHour="21.22" departLane="best" departPos="random" departSpeed="0" from="198876045#1" to="198876043#2"/>
  <flow id="motorcycle_198876045#1_28231434_000a039a" type="motorcycle" begin="0" end="3600" vehsPerHour="105.55" departLane="best" departPos="random" departSpeed="0" from="198876045#1" to="28231434"/>
  <flow id="motorcycle_198876045#1_23241821#0_000a039a" type="motorcycle" begin="0" end="3600" vehsPerHour="88.70" departLane="best" departPos="random" departSpeed="0" from="198876045#1" to="23241821#0"/>
  <flow id="motorcycle_198876045#1_198876042#0_000a039a" type="motorcycle" begin="0" end="3600" vehsPerHour="83.01" departLane="best" departPos="random" departSpeed="0" from="198876045#1" to="198876042#0"/>
  <flow id="motorcycle_198876045#1_193253427#0_000a039a" type="motorcycle" begin="0" end="3600" vehsPerHour="75.01" departLane="best" departPos="random" departSpeed="0" from="198876045#1" to="193253427#0"/>
  <flow id="motorcycle_198876045#1_198876043#2_000a039a" type="motorcycle" begin="0" end="3600" vehsPerHour="70.04" departLane="best" departPos="random" departSpeed="0" from="198876045#1" to="198876043#2"/>
  <flow id="car_-28231434_23241821#0_000a039a" type="car" begin="0" end="3600" vehsPerHour="24.52" departLane="best" departPos="random" departSpeed="0" from="-28231434" to="23241821#0"/>
  <flow id="car_-28231434_198876042#0_000a039a" type="car" begin="0" end="3600" vehsPerHour="20.51" departLane="best" departPos="random" departSpeed="0" from="-28231434" to="198876042#0"/>
  <flow id="car_-28231434_193253427#0_000a039a" type="car" begin="0" end="3600" vehsPerHour="16.42" departLane="best" departPos="random" departSpeed="0" from="-28231434" to="193253427#0"/>
  <flow id="car_-28231434_198876043#2_000a039a" type="car" begin="0" end="3600" vehsPerHour="16.51" departLane="best" departPos="random" departSpeed="0" from="-28231434" to="198876043#2"/>
  <flow id="car_-28231434_28231434_000a039a" type="car" begin="0" end="3600" vehsPerHour="13.09" departLane="best" departPos="random" departSpeed="0" from="-28231434" to="28231434"/>
  <flow id="motorcycle_-28231434_23241821#0_000a039a" type="motorcycle" begin="0" end="3600" vehsPerHour="65.32" departLane="best" departPos="random" departSpeed="0" from="-28231434" to="23241821#0"/>
  <flow id="motorcycle_-28231434_198876042#0_000a039a" type="motorcycle" begin="0" end="3600" vehsPerHour="59.25" departLane="best" departPos="random" departSpeed="0" from="-28231434" to="198876042#0"/>
  <flow id="motorcycle_-28231434_193253427#0_000a039a" type="motorcycle" begin="0" end="3600" vehsPerHour="55.62" departLane="best" departPos="random" departSpeed="0" from="-28231434" to="193253427#0"/>
  <flow id="motorcycle_-28231434_198876043#2_000a039a" type="motorcycle" begin="0" end="3600" vehsPerHour="45.08" departLane="best" departPos="random" departSpeed="0" from="-28231434" to="198876043#2"/>
  <flow id="motorcycle_-28231434_28231434_000a039a" type="motorcycle" begin="0" end="3600" vehsPerHour="39.47" departLane="best" departPos="random" departSpeed="0" from="-28231434" to="28231434"/>
  <flow id="car_-55029244#0_198876042#0_000a039a" type="car" begin="0" end="3600" vehsPerHour="27.11" departLane="best" departPos="random" departSpeed="0" from="-55029244#0" to="198876042#0"/>
  <flow id="car_-55029244#0_193253427#0_000a039a" type="car" begin="0" end="3600" vehsPerHour="23.43" departLane="best" departPos="random" departSpeed="0" from="-55029244#0" to="193253427#0"/>
  <flow id="car_-55029244#0_198876043#2_000a039a" type="car" begin="0" end="3600" vehsPerHour="21.03" departLane="best" departPos="random" departSpeed="0" from="-55029244#0" to="198876043#2"/>
  <flow id="car_-55029244#0_28231434_000a039a" type="car" begin="0" end="3600" vehsPerHour="16.77" departLane="best" departPos="random" departSpeed="0" from="-55029244#0" to="28231434"/>
  <flow id="car_-55029244#0_23241821#0_000a039a" type="car" begin="0" end="3600" vehsPerHour="13.72" departLane="best" departPos="random" departSpeed="0" from="-55029244#0" to="23241821#0"/>
  <flow id="motorcycle_-55029244#0_198876042#0_000a039a" type="motorcycle" begin="0" end="3600" vehsPerHour="78.68" departLane="best" departPos="random" departSpeed="0" from="-55029244#0" to="198876042#0"/>
  <flow id="motorcycle_-55029244#0_193253427#0_000a039a" type="motorcycle" begin="0" end="3600" vehsPerHour="67.55" departLane="best" departPos="random" departSpeed="0" from="-55029244#0" to="193253427#0"/>
  <flow id="motorcycle_-55029244#0_198876043#2_000a039a" type="motorcycle" begin="0" end="3600" vehsPerHour="62.10" departLane="best" departPos="random" departSpeed="0" from="-55029244#0" to="198876043#2"/>
  <flow id="motorcycle_-55029244#0_28231434_000a039a" type="motorcycle" begin="0" end="3600" vehsPerHour="55.07" departLane="best" departPos="random" departSpeed="0" from="-55029244#0" to="28231434"/>
  <flow id="motorcycle_-55029244#0_23241821#0_000a039a" type="motorcycle" begin="0" end="3600" vehsPerHour="45.29" departLane="best" departPos="random" departSpeed="0" from="-55029244#0" to="23241821#0"/>
  <flow id="car_34241530#0_198876042#0_000a039a" type="car" begin="0" end="3600" vehsPerHour="28.07" departLane="best" departPos="random" departSpeed="0" from="34241530#0" to="198876042#0"/>
  <flow id="car_34241530#0_193253427#0_000a039a" type="car" begin="0" end="3600" vehsPerHour="22.88" departLane="best" departPos="random" departSpeed="0" from="34241530#0" to="193253427#0"/>
  <flow id="car_34241530#0_198876043#2_000a039a" type="car" begin="0" end="3600" vehsPerHour="19.93" departLane="best" departPos="random" departSpeed="0" from="34241530#0" to="198876043#2"/>
  <flow id="car_34241530#0_28231434_000a039a" type="car" begin="0" end="3600" vehsPerHour="16.43" departLane="best" departPos="random" departSpeed="0" from="34241530#0" to="28231434"/>
  <flow id="car_34241530#0_23241821#0_000a039a" type="car" begin="0" end="3600" vehsPerHour="12.98" departLane="best" departPos="random" departSpeed="0" from="34241530#0" to="23241821#0"/>
  <flow id="motorcycle_34241530#0_198876042#0_000a039a" type="motorcycle" begin="0" end="3600" vehsPerHour="76.93" departLane="best" departPos="random" departSpeed="0" from="34241530#0" to="198876042#0"/>
  <flow id="motorcycle_34241530#0_193253427#0_000a039a" type="motorcycle" begin="0" end="3600" vehsPerHour="64.42" departLane="best" departPos="random" departSpeed="0" from="34241530#0" to="193253427#0"/>
  <flow id="motorcycle_34241530#0_198876043#2_000a039a" type="motorcycle" begin="0" end="3600" vehsPerHour="59.78" departLane="best" departPos="random" departSpeed="0" from="34241530#0" to="198876043#2"/>
  <flow id="motorcycle_34241530#0_28231434_000a039a" type="motorcycle" begin="0" end="3600" vehsPerHour="55.05" departLane="best" departPos="random" departSpeed="0" from="34241530#0" to="28231434"/>
  <flow id="motorcycle_34241530#0_23241821#0_000a039a" type="motorcycle" begin="0" end="3600" vehsPerHour="46.06" departLane="best" departPos="random" departSpeed="0" from="34241530#0" to="23241821#0"/>
  <flow id="truck_34241530#0_198876042#0_000a039a" type="truck" begin="0" end="3600" vehsPerHour="11.62" departLane="best" departPos="random" departSpeed="0" from="34241530#0" to="198876042#0"/>
</routes>
