<routes>
<vType id="car" vClass="passenger" accel="2.6" decel="4.5" sigma="0.5" length="5.0" maxSpeed="13.9"/>
<vType id="motorcycle" vClass="motorcycle" accel="3.0" decel="5.0" sigma="0.5" length="2.0" maxSpeed="14.0"/>
<vType id="truck" vClass="truck" accel="1.2" decel="3.5" sigma="0.5" length="12.0" maxSpeed="10.0"/>

  <flow id="car_222682222#1_193253427#0_000733b5" type="car" begin="0" end="3600" vehsPerHour="59.48" departLane="best" departPos="random" departSpeed="0" from="222682222#1" to="193253427#0"/>
  <flow id="car_222682222#1_198876043#0_000733b5" type="car" begin="0" end="3600" vehsPerHour="48.40" departLane="best" departPos="random" departSpeed="0" from="222682222#1" to="198876043#0"/>
  <flow id="car_222682222#1_28231434_000733b5" type="car" begin="0" end="3600" vehsPerHour="52.70" departLane="best" departPos="random" departSpeed="0" from="222682222#1" to="28231434"/>
  <flow id="car_222682222#1_23241821#0_000733b5" type="car" begin="0" end="3600" vehsPerHour="40.83" departLane="best" departPos="random" departSpeed="0" from="222682222#1" to="23241821#0"/>
  <flow id="car_222682222#1_198876042#0_000733b5" type="car" begin="0" end="3600" vehsPerHour="35.12" departLane="best" departPos="random" departSpeed="0" from="222682222#1" to="198876042#0"/>
  <flow id="motorcycle_222682222#1_193253427#0_000733b5" type="motorcycle" begin="0" end="3600" vehsPerHour="171.02" departLane="best" departPos="random" departSpeed="0" from="222682222#1" to="193253427#0"/>
  <flow id="motorcycle_222682222#1_198876043#0_000733b5" type="motorcycle" begin="0" end="3600" vehsPerHour="149.72" departLane="best" departPos="random" departSpeed="0" from="222682222#1" to="198876043#0"/>
  <flow id="motorcycle_222682222#1_28231434_000733b5" type="motorcycle" begin="0" end="3600" vehsPerHour="146.64" departLane="best" departPos="random" departSpeed="0" from="222682222#1" to="28231434"/>
  <flow id="motorcycle_222682222#1_23241821#0_000733b5" type="motorcycle" begin="0" end="3600" vehsPerHour="120.18" departLane="best" departPos="random" departSpeed="0" from="222682222#1" to="23241821#0"/>
  <flow id="motorcycle_222682222#1_198876042#0_000733b5" type="motorcycle" begin="0" end="3600" vehsPerHour="102.62" departLane="best" departPos="random" departSpeed="0" from="222682222#1" to="198876042#0"/>
  <flow id="car_193253433#2_198876043#0_000733b5" type="car" begin="0" end="3600" vehsPerHour="39.40" departLane="best" departPos="random" departSpeed="0" from="193253433#2" to="198876043#0"/>
  <flow id="car_193253433#2_28231434_000733b5" type="car" begin="0" end="3600" vehsPerHour="34.53" departLane="best" departPos="random" departSpeed="0" from="193253433#2" to="28231434"/>
  <flow id="car_193253433#2_23241821#0_000733b5" type="car" begin="0" end="3600" vehsPerHour="33.75" departLane="best" departPos="random" departSpeed="0" from="193253433#2" to="23241821#0"/>
  <flow id="car_193253433#2_198876042#0_000733b5" type="car" begin="0" end="3600" vehsPerHour="27.00" departLane="best" departPos="random" departSpeed="0" from="193253433#2" to="198876042#0"/>
  <flow id="car_193253433#2_193253427#0_000733b5" type="car" begin="0" end="3600" vehsPerHour="24.61" departLane="best" departPos="random" departSpeed="0" from="193253433#2" to="193253427#0"/>
  <flow id="motorcycle_193253433#2_198876043#0_000733b5" type="motorcycle" begin="0" end="3600" vehsPerHour="115.67" departLane="best" departPos="random" departSpeed="0" from="193253433#2" to="198876043#0"/>
  <flow id="motorcycle_193253433#2_28231434_000733b5" type="motorcycle" begin="0" end="3600" vehsPerHour="105.52" departLane="best" departPos="random" departSpeed="0" from="193253433#2" to="28231434"/>
  <flow id="motorcycle_193253433#2_23241821#0_000733b5" type="motorcycle" begin="0" end="3600" vehsPerHour="97.79" departLane="best" departPos="random" departSpeed="0" from="193253433#2" to="23241821#0"/>
  <flow id="motorcycle_193253433#2_198876042#0_000733b5" type="motorcycle" begin="0" end="3600" vehsPerHour="83.19" departLane="best" departPos="random" departSpeed="0" from="193253433#2" to="198876042#0"/>
  <flow id="motorcycle_193253433#2_193253427#0_000733b5" type="motorcycle" begin="0" end="3600" vehsPerHour="67.79" departLane="best" departPos="random" departSpeed="0" from="193253433#2" to="193253427#0"/>
  <flow id="car_198876045#1_28231434_000733b5" type="car" begin="0" end="3600" vehsPerHour="34.42" departLane="best" departPos="random" departSpeed="0" from="198876045#1" to="28231434"/>
  <flow id="car_198876045#1_23241821#0_000733b5" type="car" begin="0" end="3600" vehsPerHour="29.84" departLane="best" departPos="random" departSpeed="0" from="198876045#1" to="23241821#0"/>
  <flow id="car_198876045#1_198876042#0_000733b5" type="car" begin="0" end="3600" vehsPerHour="27.50" departLane="best" departPos="random" departSpeed="0" from="198876045#1" to="198876042#0"/>
  <flow id="car_198876045#1_193253427#0_000733b5" type="car" begin="0" end="3600" vehsPerHour="22.42" departLane="best" departPos="random" departSpeed="0" from="198876045#1" to="193253427#0"/>
  <flow id="car_198876045#1_198876043#2_000733b5" type="car" begin="0" end="3600" vehsPerHour="20.03" departLane="best" departPos="random" departSpeed="0" from="198876045#1" to="198876043#2"/>
  <flow id="motorcycle_198876045#1_28231434_000733b5" type="motorcycle" begin="0" end="3600" vehsPerHour="101.24" departLane="best" departPos="random" departSpeed="0" from="198876045#1" to="28231434"/>
  <flow id="motorcycle_198876045#1_23241821#0_000733b5" type="motorcycle" begin="0" end="3600" vehsPerHour="86.48" departLane="best" departPos="random" departSpeed="0" from="198876045#1" to="23241821#0"/>
  <flow id="motorcycle_198876045#1_198876042#0_000733b5" type="motorcycle" begin="0" end="3600" vehsPerHour="80.04" departLane="best" departPos="random" departSpeed="0" from="198876045#1" to="198876042#0"/>
  <flow id="motorcycle_198876045#1_193253427#0_000733b5" type="motorcycle" begin="0" end="3600" vehsPerHour="72.34" departLane="best" departPos="random" departSpeed="0" from="198876045#1" to="193253427#0"/>
  <flow id="motorcycle_198876045#1_198876043#2_000733b5" type="motorcycle" begin="0" end="3600" vehsPerHour="64.61" departLane="best" departPos="random" departSpeed="0" from="198876045#1" to="198876043#2"/>
  <flow id="car_-28231434_23241821#0_000733b5" type="car" begin="0" end="3600" vehsPerHour="22.66" departLane="best" departPos="random" departSpeed="0" from="-28231434" to="23241821#0"/>
  <flow id="car_-28231434_198876042#0_000733b5" type="car" begin="0" end="3600" vehsPerHour="20.86" departLane="best" departPos="random" departSpeed="0" from="-28231434" to="198876042#0"/>
  <flow id="car_-28231434_193253427#0_000733b5" type="car" begin="0" end="3600" vehsPerHour="16.49" departLane="best" departPos="random" departSpeed="0" from="-28231434" to="193253427#0"/>
  <flow id="car_-28231434_198876043#2_000733b5" type="car" begin="0" end="3600" vehsPerHour="17.37" departLane="best" departPos="random" departSpeed="0" from="-28231434" to="198876043#2"/>
  <flow id="car_-28231434_28231434_000733b5" type="car" begin="0" end="3600" vehsPerHour="13.30" departLane="best" departPos="random" departSpeed="0" from="-28231434" to="28231434"/>
  <flow id="motorcycle_-28231434_23241821#0_000733b5" type="motorcycle" begin="0" end="3600" vehsPerHour="65.06" departLane="best" departPos="random" departSpeed="0" from="-28231434" to="23241821#0"/>
  <flow id="motorcycle_-28231434_198876042#0_000733b5" type="motorcycle" begin="0" end="3600" vehsPerHour="60.23" departLane="best" departPos="random" departSpeed="0" from="-28231434" to="198876042#0"/>
  <flow id="motorcycle_-28231434_193253427#0_000733b5" type="motorcycle" begin="0" end="3600" vehsPerHour="51.30" departLane="best" departPos="random" departSpeed="0" from="-28231434" to="193253427#0"/>
  <flow id="motorcycle_-28231434_198876043#2_000733b5" type="motorcycle" begin="0" end="3600" vehsPerHour="48.21" departLane="best" departPos="random" departSpeed="0" from="-28231434" to="198876043#2"/>
  <flow id="motorcycle_-28231434_28231434_000733b5" type="motorcycle" begin="0" end="3600" vehsPerHour="41.41" departLane="best" departPos="random" departSpeed="0" from="-28231434" to="28231434"/>
  <flow id="car_-55029244#0_198876042#0_000733b5" type="car" begin="0" end="3600" vehsPerHour="27.31" departLane="best" departPos="random" departSpeed="0" from="-55029244#0" to="198876042#0"/>
  <flow id="car_-55029244#0_193253427#0_000733b5" type="car" begin="0" end="3600" vehsPerHour="23.99" departLane="best" departPos="random" departSpeed="0" from="-55029244#0" to="193253427#0"/>
  <flow id="car_-55029244#0_198876043#2_000733b5" type="car" begin="0" end="3600" vehsPerHour="20.52" departLane="best" departPos="random" departSpeed="0" from="-55029244#0" to="198876043#2"/>
  <flow id="car_-55029244#0_28231434_000733b5" type="car" begin="0" end="3600" vehsPerHour="17.60" departLane="best" departPos="random" departSpeed="0" from="-55029244#0" to="28231434"/>
  <flow id="car_-55029244#0_23241821#0_000733b5" type="car" begin="0" end="3600" vehsPerHour="13.75" departLane="best" departPos="random" departSpeed="0" from="-55029244#0" to="23241821#0"/>
  <flow id="motorcycle_-55029244#0_198876042#0_000733b5" type="motorcycle" begin="0" end="3600" vehsPerHour="79.90" departLane="best" departPos="random" departSpeed="0" from="-55029244#0" to="198876042#0"/>
  <flow id="motorcycle_-55029244#0_193253427#0_000733b5" type="motorcycle" begin="0" end="3600" vehsPerHour="69.29" departLane="best" departPos="random" departSpeed="0" from="-55029244#0" to="193253427#0"/>
  <flow id="motorcycle_-55029244#0_198876043#2_000733b5" type="motorcycle" begin="0" end="3600" vehsPerHour="59.36" departLane="best" departPos="random" departSpeed="0" from="-55029244#0" to="198876043#2"/>
  <flow id="motorcycle_-55029244#0_28231434_000733b5" type="motorcycle" begin="0" end="3600" vehsPerHour="52.53" departLane="best" departPos="random" departSpeed="0" from="-55029244#0" to="28231434"/>
  <flow id="motorcycle_-55029244#0_23241821#0_000733b5" type="motorcycle" begin="0" end="3600" vehsPerHour="45.27" departLane="best" departPos="random" departSpeed="0" from="-55029244#0" to="23241821#0"/>
  <flow id="car_34241530#0_198876042#0_000733b5" type="car" begin="0" end="3600" vehsPerHour="27.99" departLane="best" departPos="random" departSpeed="0" from="34241530#0" to="198876042#0"/>
  <flow id="car_34241530#0_193253427#0_000733b5" type="car" begin="0" end="3600" vehsPerHour="23.91" departLane="best" departPos="random" departSpeed="0" from="34241530#0" to="193253427#0"/>
  <flow id="car_34241530#0_198876043#2_000733b5" type="car" begin="0" end="3600" vehsPerHour="19.26" departLane="best" departPos="random" departSpeed="0" from="34241530#0" to="198876043#2"/>
  <flow id="car_34241530#0_28231434_000733b5" type="car" begin="0" end="3600" vehsPerHour="16.82" departLane="best" departPos="random" departSpeed="0" from="34241530#0" to="28231434"/>
  <flow id="car_34241530#0_23241821#0_000733b5" type="car" begin="0" end="3600" vehsPerHour="13.98" departLane="best" departPos="random" departSpeed="0" from="34241530#0" to="23241821#0"/>
  <flow id="motorcycle_34241530#0_198876042#0_000733b5" type="motorcycle" begin="0" end="3600" vehsPerHour="83.08" departLane="best" departPos="random" departSpeed="0" from="34241530#0" to="198876042#0"/>
  <flow id="motorcycle_34241530#0_193253427#0_000733b5" type="motorcycle" begin="0" end="3600" vehsPerHour="65.21" departLane="best" departPos="random" departSpeed="0" from="34241530#0" to="193253427#0"/>
  <flow id="motorcycle_34241530#0_198876043#2_000733b5" type="motorcycle" begin="0" end="3600" vehsPerHour="59.33" departLane="best" departPos="random" departSpeed="0" from="34241530#0" to="198876043#2"/>
  <flow id="motorcycle_34241530#0_28231434_000733b5" type="motorcycle" begin="0" end="3600" vehsPerHour="55.03" departLane="best" departPos="random" departSpeed="0" from="34241530#0" to="28231434"/>
  <flow id="motorcycle_34241530#0_23241821#0_000733b5" type="motorcycle" begin="0" end="3600" vehsPerHour="48.76" departLane="best" departPos="random" departSpeed="0" from="34241530#0" to="23241821#0"/>
  <flow id="truck_34241530#0_198876042#0_000733b5" type="truck" begin="0" end="3600" vehsPerHour="11.38" departLane="best" departPos="random" departSpeed="0" from="34241530#0" to="198876042#0"/>
</routes>
