<routes>
<vType id="car" vClass="passenger" accel="2.6" decel="4.5" sigma="0.5" length="5.0" maxSpeed="13.9"/>
<vType id="motorcycle" vClass="motorcycle" accel="3.0" decel="5.0" sigma="0.5" length="2.0" maxSpeed="14.0"/>
<vType id="truck" vClass="truck" accel="1.2" decel="3.5" sigma="0.5" length="12.0" maxSpeed="10.0"/>

  <flow id="car_222682222#1_193253427#0_000aa738" type="car" begin="0" end="3600" vehsPerHour="62.76" departLane="best" departPos="random" departSpeed="0" from="222682222#1" to="193253427#0"/>
  <flow id="car_222682222#1_198876043#0_000aa738" type="car" begin="0" end="3600" vehsPerHour="53.02" departLane="best" departPos="random" departSpeed="0" from="222682222#1" to="198876043#0"/>
  <flow id="car_222682222#1_28231434_000aa738" type="car" begin="0" end="3600" vehsPerHour="51.72" departLane="best" departPos="random" departSpeed="0" from="222682222#1" to="28231434"/>
  <flow id="car_222682222#1_23241821#0_000aa738" type="car" begin="0" end="3600" vehsPerHour="41.89" departLane="best" departPos="random" departSpeed="0" from="222682222#1" to="23241821#0"/>
  <flow id="car_222682222#1_198876042#0_000aa738" type="car" begin="0" end="3600" vehsPerHour="32.34" departLane="best" departPos="random" departSpeed="0" from="222682222#1" to="198876042#0"/>
  <flow id="motorcycle_222682222#1_193253427#0_000aa738" type="motorcycle" begin="0" end="3600" vehsPerHour="177.16" departLane="best" departPos="random" departSpeed="0" from="222682222#1" to="193253427#0"/>
  <flow id="motorcycle_222682222#1_198876043#0_000aa738" type="motorcycle" begin="0" end="3600" vehsPerHour="151.50" departLane="best" departPos="random" departSpeed="0" from="222682222#1" to="198876043#0"/>
  <flow id="motorcycle_222682222#1_28231434_000aa738" type="motorcycle" begin="0" end="3600" vehsPerHour="147.64" departLane="best" departPos="random" departSpeed="0" from="222682222#1" to="28231434"/>
  <flow id="motorcycle_222682222#1_23241821#0_000aa738" type="motorcycle" begin="0" end="3600" vehsPerHour="112.78" departLane="best" departPos="random" departSpeed="0" from="222682222#1" to="23241821#0"/>
  <flow id="motorcycle_222682222#1_198876042#0_000aa738" type="motorcycle" begin="0" end="3600" vehsPerHour="98.52" departLane="best" departPos="random" departSpeed="0" from="222682222#1" to="198876042#0"/>
  <flow id="car_193253433#2_198876043#0_000aa738" type="car" begin="0" end="3600" vehsPerHour="39.67" departLane="best" departPos="random" departSpeed="0" from="193253433#2" to="198876043#0"/>
  <flow id="car_193253433#2_28231434_000aa738" type="car" begin="0" end="3600" vehsPerHour="32.69" departLane="best" departPos="random" departSpeed="0" from="193253433#2" to="28231434"/>
  <flow id="car_193253433#2_23241821#0_000aa738" type="car" begin="0" end="3600" vehsPerHour="33.86" departLane="best" departPos="random" departSpeed="0" from="193253433#2" to="23241821#0"/>
  <flow id="car_193253433#2_198876042#0_000aa738" type="car" begin="0" end="3600" vehsPerHour="27.92" departLane="best" departPos="random" departSpeed="0" from="193253433#2" to="198876042#0"/>
  <flow id="car_193253433#2_193253427#0_000aa738" type="car" begin="0" end="3600" vehsPerHour="23.24" departLane="best" departPos="random" departSpeed="0" from="193253433#2" to="193253427#0"/>
  <flow id="motorcycle_193253433#2_198876043#0_000aa738" type="motorcycle" begin="0" end="3600" vehsPerHour="111.35" departLane="best" departPos="random" departSpeed="0" from="193253433#2" to="198876043#0"/>
  <flow id="motorcycle_193253433#2_28231434_000aa738" type="motorcycle" begin="0" end="3600" vehsPerHour="105.16" departLane="best" departPos="random" departSpeed="0" from="193253433#2" to="28231434"/>
  <flow id="motorcycle_193253433#2_23241821#0_000aa738" type="motorcycle" begin="0" end="3600" vehsPerHour="90.22" departLane="best" departPos="random" departSpeed="0" from="193253433#2" to="23241821#0"/>
  <flow id="motorcycle_193253433#2_198876042#0_000aa738" type="motorcycle" begin="0" end="3600" vehsPerHour="80.41" departLane="best" departPos="random" departSpeed="0" from="193253433#2" to="198876042#0"/>
  <flow id="motorcycle_193253433#2_193253427#0_000aa738" type="motorcycle" begin="0" end="3600" vehsPerHour="65.37" departLane="best" departPos="random" departSpeed="0" from="193253433#2" to="193253427#0"/>
  <flow id="car_198876045#1_28231434_000aa738" type="car" begin="0" end="3600" vehsPerHour="32.96" departLane="best" departPos="random" departSpeed="0" from="198876045#1" to="28231434"/>
  <flow id="car_198876045#1_23241821#0_000aa738" type="car" begin="0" end="3600" vehsPerHour="31.17" departLane="best" departPos="random" departSpeed="0" from="198876045#1" to="23241821#0"/>
  <flow id="car_198876045#1_198876042#0_000aa738" type="car" begin="0" end="3600" vehsPerHour="27.69" departLane="best" departPos="random" departSpeed="0" from="198876045#1" to="198876042#0"/>
  <flow id="car_198876045#1_193253427#0_000aa738" type="car" begin="0" end="3600" vehsPerHour="23.63" departLane="best" departPos="random" departSpeed="0" from="198876045#1" to="193253427#0"/>
  <flow id="car_198876045#1_198876043#2_000aa738" type="car" begin="0" end="3600" vehsPerHour="19.48" departLane="best" departPos="random" departSpeed="0" from="198876045#1" to="198876043#2"/>
  <flow id="motorcycle_198876045#1_28231434_000aa738" type="motorcycle" begin="0" end="3600" vehsPerHour="102.96" departLane="best" departPos="random" departSpeed="0" from="198876045#1" to="28231434"/>
  <flow id="motorcycle_198876045#1_23241821#0_000aa738" type="motorcycle" begin="0" end="3600" vehsPerHour="87.87" departLane="best" departPos="random" departSpeed="0" from="198876045#1" to="23241821#0"/>
  <flow id="motorcycle_198876045#1_198876042#0_000aa738" type="motorcycle" begin="0" end="3600" vehsPerHour="82.35" departLane="best" departPos="random" departSpeed="0" from="198876045#1" to="198876042#0"/>
  <flow id="motorcycle_198876045#1_193253427#0_000aa738" type="motorcycle" begin="0" end="3600" vehsPerHour="72.20" departLane="best" departPos="random" departSpeed="0" from="198876045#1" to="193253427#0"/>
  <flow id="motorcycle_198876045#1_198876043#2_000aa738" type="motorcycle" begin="0" end="3600" vehsPerHour="67.42" departLane="best" departPos="random" departSpeed="0" from="198876045#1" to="198876043#2"/>
  <flow id="car_-28231434_23241821#0_000aa738" type="car" begin="0" end="3600" vehsPerHour="24.09" departLane="best" departPos="random" departSpeed="0" from="-28231434" to="23241821#0"/>
  <flow id="car_-28231434_198876042#0_000aa738" type="car" begin="0" end="3600" vehsPerHour="20.09" departLane="best" departPos="random" departSpeed="0" from="-28231434" to="198876042#0"/>
  <flow id="car_-28231434_193253427#0_000aa738" type="car" begin="0" end="3600" vehsPerHour="16.42" departLane="best" departPos="random" departSpeed="0" from="-28231434" to="193253427#0"/>
  <flow id="car_-28231434_198876043#2_000aa738" type="car" begin="0" end="3600" vehsPerHour="17.38" departLane="best" departPos="random" departSpeed="0" from="-28231434" to="198876043#2"/>
  <flow id="car_-28231434_28231434_000aa738" type="car" begin="0" end="3600" vehsPerHour="13.99" departLane="best" departPos="random" departSpeed="0" from="-28231434" to="28231434"/>
  <flow id="motorcycle_-28231434_23241821#0_000aa738" type="motorcycle" begin="0" end="3600" vehsPerHour="67.81" departLane="best" departPos="random" departSpeed="0" from="-28231434" to="23241821#0"/>
  <flow id="motorcycle_-28231434_198876042#0_000aa738" type="motorcycle" begin="0" end="3600" vehsPerHour="63.13" departLane="best" departPos="random" departSpeed="0" from="-28231434" to="198876042#0"/>
  <flow id="motorcycle_-28231434_193253427#0_000aa738" type="motorcycle" begin="0" end="3600" vehsPerHour="53.44" departLane="best" departPos="random" departSpeed="0" from="-28231434" to="193253427#0"/>
  <flow id="motorcycle_-28231434_198876043#2_000aa738" type="motorcycle" begin="0" end="3600" vehsPerHour="48.42" departLane="best" departPos="random" departSpeed="0" from="-28231434" to="198876043#2"/>
  <flow id="motorcycle_-28231434_28231434_000aa738" type="motorcycle" begin="0" end="3600" vehsPerHour="40.57" departLane="best" departPos="random" departSpeed="0" from="-28231434" to="28231434"/>
  <flow id="car_-55029244#0_198876042#0_000aa738" type="car" begin="0" end="3600" vehsPerHour="26.10" departLane="best" departPos="random" departSpeed="0" from="-55029244#0" to="198876042#0"/>
  <flow id="car_-55029244#0_193253427#0_000aa738" type="car" begin="0" end="3600" vehsPerHour="22.53" departLane="best" departPos="random" departSpeed="0" from="-55029244#0" to="193253427#0"/>
  <flow id="car_-55029244#0_198876043#2_000aa738" type="car" begin="0" end="3600" vehsPerHour="20.37" departLane="best" departPos="random" departSpeed="0" from="-55029244#0" to="198876043#2"/>
  <flow id="car_-55029244#0_28231434_000aa738" type="car" begin="0" end="3600" vehsPerHour="16.16" departLane="best" departPos="random" departSpeed="0" from="-55029244#0" to="28231434"/>
  <flow id="car_-55029244#0_23241821#0_000aa738" type="car" begin="0" end="3600" vehsPerHour="13.93" departLane="best" departPos="random" departSpeed="0" from="-55029244#0" to="23241821#0"/>
  <flow id="motorcycle_-55029244#0_198876042#0_000aa738" type="motorcycle" begin="0" end="3600" vehsPerHour="84.34" departLane="best" departPos="random" departSpeed="0" from="-55029244#0" to="198876042#0"/>
  <flow id="motorcycle_-55029244#0_193253427#0_000aa738" type="motorcycle" begin="0" end="3600" vehsPerHour="67.81" departLane="best" departPos="random" departSpeed="0" from="-55029244#0" to="193253427#0"/>
  <flow id="motorcycle_-55029244#0_198876043#2_000aa738" type="motorcycle" begin="0" end="3600" vehsPerHour="60.63" departLane="best" departPos="random" departSpeed="0" from="-55029244#0" to="198876043#2"/>
  <flow id="motorcycle_-55029244#0_28231434_000aa738" type="motorcycle" begin="0" end="3600" vehsPerHour="54.44" departLane="best" departPos="random" departSpeed="0" from="-55029244#0" to="28231434"/>
  <flow id="motorcycle_-55029244#0_23241821#0_000aa738" type="motorcycle" begin="0" end="3600" vehsPerHour="46.64" departLane="best" departPos="random" departSpeed="0" from="-55029244#0" to="23241821#0"/>
  <flow id="car_34241530#0_198876042#0_000aa738" type="car" begin="0" end="3600" vehsPerHour="26.62" departLane="best" departPos="random" departSpeed="0" from="34241530#0" to="198876042#0"/>
  <flow id="car_34241530#0_193253427#0_000aa738" type="car" begin="0" end="3600" vehsPerHour="23.39" departLane="best" departPos="random" departSpeed="0" from="34241530#0" to="193253427#0"/>
  <flow id="car_34241530#0_198876043#2_000aa738" type="car" begin="0" end="3600" vehsPerHour="19.77" departLane="best" departPos="random" departSpeed="0" from="34241530#0" to="198876043#2"/>
  <flow id="car_34241530#0_28231434_000aa738" type="car" begin="0" end="3600" vehsPerHour="16.30" departLane="best" departPos="random" departSpeed="0" from="34241530#0" to="28231434"/>
  <flow id="car_34241530#0_23241821#0_000aa738" type="car" begin="0" end="3600" vehsPerHour="13.14" departLane="best" departPos="random" departSpeed="0" from="34241530#0" to="23241821#0"/>
  <flow id="motorcycle_34241530#0_198876042#0_000aa738" type="motorcycle" begin="0" end="3600" vehsPerHour="81.95" departLane="best" departPos="random" departSpeed="0" from="34241530#0" to="198876042#0"/>
  <flow id="motorcycle_34241530#0_193253427#0_000aa738" type="motorcycle" begin="0" end="3600" vehsPerHour="70.73" departLane="best" departPos="random" departSpeed="0" from="34241530#0" to="193253427#0"/>
  <flow id="motorcycle_34241530#0_198876043#2_000aa738" type="motorcycle" begin="0" end="3600" vehsPerHour="60.27" departLane="best" departPos="random" departSpeed="0" from="34241530#0" to="198876043#2"/>
  <flow id="motorcycle_34241530#0_28231434_000aa738" type="motorcycle" begin="0" end="3600" vehsPerHour="54.19" departLane="best" departPos="random" departSpeed="0" from="34241530#0" to="28231434"/>
  <flow id="motorcycle_34241530#0_23241821#0_000aa738" type="motorcycle" begin="0" end="3600" vehsPerHour="46.57" departLane="best" departPos="random" departSpeed="0" from="34241530#0" to="23241821#0"/>
  <flow id="truck_34241530#0_198876042#0_000aa738" type="truck" begin="0" end="3600" vehsPerHour="12.01" departLane="best" departPos="random" departSpeed="0" from="34241530#0" to="198876042#0"/>
</routes>
