<routes>
<vType id="car" vClass="passenger" accel="2.6" decel="4.5" sigma="0.5" length="5.0" maxSpeed="13.9"/>
<vType id="motorcycle" vClass="motorcycle" accel="3.0" decel="5.0" sigma="0.5" length="2.0" maxSpeed="14.0"/>
<vType id="truck" vClass="truck" accel="1.2" decel="3.5" sigma="0.5" length="12.0" maxSpeed="10.0"/>

  <flow id="car_222682222#1_193253427#0_000659a6" type="car" begin="0" end="3600" vehsPerHour="59.07" departLane="best" departPos="random" departSpeed="0" from="222682222#1" to="193253427#0"/>
  <flow id="car_222682222#1_198876043#0_000659a6" type="car" begin="0" end="3600" vehsPerHour="49.88" departLane="best" departPos="random" departSpeed="0" from="222682222#1" to="198876043#0"/>
  <flow id="car_222682222#1_28231434_000659a6" type="car" begin="0" end="3600" vehsPerHour="51.45" departLane="best" departPos="random" departSpeed="0" from="222682222#1" to="28231434"/>
  <flow id="car_222682222#1_23241821#0_000659a6" type="car" begin="0" end="3600" vehsPerHour="40.86" departLane="best" departPos="random" departSpeed="0" from="222682222#1" to="23241821#0"/>
  <flow id="car_222682222#1_198876042#0_000659a6" type="car" begin="0" end="3600" vehsPerHour="33.87" departLane="best" departPos="random" departSpeed="0" from="222682222#1" to="198876042#0"/>
  <flow id="motorcycle_222682222#1_193253427#0_000659a6" type="motorcycle" begin="0" end="3600" vehsPerHour="168.00" departLane="best" departPos="random" departSpeed="0" from="222682222#1" to="193253427#0"/>
  <flow id="motorcycle_222682222#1_198876043#0_000659a6" type="motorcycle" begin="0" end="3600" vehsPerHour="152.59" departLane="best" departPos="random" departSpeed="0" from="222682222#1" to="198876043#0"/>
  <flow id="motorcycle_222682222#1_28231434_000659a6" type="motorcycle" begin="0" end="3600" vehsPerHour="136.25" departLane="best" departPos="random" departSpeed="0" from="222682222#1" to="28231434"/>
  <flow id="motorcycle_222682222#1_23241821#0_000659a6" type="motorcycle" begin="0" end="3600" vehsPerHour="115.45" departLane="best" departPos="random" departSpeed="0" from="222682222#1" to="23241821#0"/>
  <flow id="motorcycle_222682222#1_198876042#0_000659a6" type="motorcycle" begin="0" end="3600" vehsPerHour="97.80" departLane="best" departPos="random" departSpeed="0" from="222682222#1" to="198876042#0"/>
  <flow id="car_193253433#2_198876043#0_000659a6" type="car" begin="0" end="3600" vehsPerHour="42.14" departLane="best" departPos="random" departSpeed="0" from="193253433#2" to="198876043#0"/>
  <flow id="car_193253433#2_28231434_000659a6" type="car" begin="0" end="3600" vehsPerHour="35.36" departLane="best" departPos="random" departSpeed="0" from="193253433#2" to="28231434"/>
  <flow id="car_193253433#2_23241821#0_000659a6" type="car" begin="0" end="3600" vehsPerHour="35.22" departLane="best" departPos="random" departSpeed="0" from="193253433#2" to="23241821#0"/>
  <flow id="car_193253433#2_198876042#0_000659a6" type="car" begin="0" end="3600" vehsPerHour="27.99" departLane="best" departPos="random" departSpeed="0" from="193253433#2" to="198876042#0"/>
  <flow id="car_193253433#2_193253427#0_000659a6" type="car" begin="0" end="3600" vehsPerHour="22.83" departLane="best" departPos="random" departSpeed="0" from="193253433#2" to="193253427#0"/>
  <flow id="motorcycle_193253433#2_198876043#0_000659a6" type="motorcycle" begin="0" end="3600" vehsPerHour="115.48" departLane="best" departPos="random" departSpeed="0" from="193253433#2" to="198876043#0"/>
  <flow id="motorcycle_193253433#2_28231434_000659a6" type="motorcycle" begin="0" end="3600" vehsPerHour="99.82" departLane="best" departPos="random" departSpeed="0" from="193253433#2" to="28231434"/>
  <flow id="motorcycle_193253433#2_23241821#0_000659a6" type="motorcycle" begin="0" end="3600" vehsPerHour="91.02" departLane="best" departPos="random" departSpeed="0" from="193253433#2" to="23241821#0"/>
  <flow id="motorcycle_193253433#2_198876042#0_000659a6" type="motorcycle" begin="0" end="3600" vehsPerHour="78.62" departLane="best" departPos="random" departSpeed="0" from="193253433#2" to="198876042#0"/>
  <flow id="motorcycle_193253433#2_193253427#0_000659a6" type="motorcycle" begin="0" end="3600" vehsPerHour="65.20" departLane="best" departPos="random" departSpeed="0" from="193253433#2" to="193253427#0"/>
  <flow id="car_198876045#1_28231434_000659a6" type="car" begin="0" end="3600" vehsPerHour="32.48" departLane="best" departPos="random" departSpeed="0" from="198876045#1" to="28231434"/>
  <flow id="car_198876045#1_23241821#0_000659a6" type="car" begin="0" end="3600" vehsPerHour="28.88" departLane="best" departPos="random" departSpeed="0" from="198876045#1" to="23241821#0"/>
  <flow id="car_198876045#1_198876042#0_000659a6" type="car" begin="0" end="3600" vehsPerHour="26.12" departLane="best" departPos="random" departSpeed="0" from="198876045#1" to="198876042#0"/>
  <flow id="car_198876045#1_193253427#0_000659a6" type="car" begin="0" end="3600" vehsPerHour="23.99" departLane="best" departPos="random" departSpeed="0" from="198876045#1" to="193253427#0"/>
  <flow id="car_198876045#1_198876043#2_000659a6" type="car" begin="0" end="3600" vehsPerHour="19.67" departLane="best" departPos="random" departSpeed="0" from="198876045#1" to="198876043#2"/>
  <flow id="motorcycle_198876045#1_28231434_000659a6" type="motorcycle" begin="0" end="3600" vehsPerHour="100.49" departLane="best" departPos="random" departSpeed="0" from="198876045#1" to="28231434"/>
  <flow id="motorcycle_198876045#1_23241821#0_000659a6" type="motorcycle" begin="0" end="3600" vehsPerHour="91.61" departLane="best" departPos="random" departSpeed="0" from="198876045#1" to="23241821#0"/>
  <flow id="motorcycle_198876045#1_198876042#0_000659a6" type="motorcycle" begin="0" end="3600" vehsPerHour="77.66" departLane="best" departPos="random" departSpeed="0" from="198876045#1" to="198876042#0"/>
  <flow id="motorcycle_198876045#1_193253427#0_000659a6" type="motorcycle" begin="0" end="3600" vehsPerHour="75.73" departLane="best" departPos="random" departSpeed="0" from="198876045#1" to="193253427#0"/>
  <flow id="motorcycle_198876045#1_198876043#2_000659a6" type="motorcycle" begin="0" end="3600" vehsPerHour="68.95" departLane="best" departPos="random" departSpeed="0" from="198876045#1" to="198876043#2"/>
  <flow id="car_-28231434_23241821#0_000659a6" type="car" begin="0" end="3600" vehsPerHour="23.43" departLane="best" departPos="random" departSpeed="0" from="-28231434" to="23241821#0"/>
  <flow id="car_-28231434_198876042#0_000659a6" type="car" begin="0" end="3600" vehsPerHour="20.67" departLane="best" departPos="random" departSpeed="0" from="-28231434" to="198876042#0"/>
  <flow id="car_-28231434_193253427#0_000659a6" type="car" begin="0" end="3600" vehsPerHour="17.01" departLane="best" departPos="random" departSpeed="0" from="-28231434" to="193253427#0"/>
  <flow id="car_-28231434_198876043#2_000659a6" type="car" begin="0" end="3600" vehsPerHour="17.07" departLane="best" departPos="random" departSpeed="0" from="-28231434" to="198876043#2"/>
  <flow id="car_-28231434_28231434_000659a6" type="car" begin="0" end="3600" vehsPerHour="14.03" departLane="best" departPos="random" departSpeed="0" from="-28231434" to="28231434"/>
  <flow id="motorcycle_-28231434_23241821#0_000659a6" type="motorcycle" begin="0" end="3600" vehsPerHour="70.76" departLane="best" departPos="random" departSpeed="0" from="-28231434" to="23241821#0"/>
  <flow id="motorcycle_-28231434_198876042#0_000659a6" type="motorcycle" begin="0" end="3600" vehsPerHour="61.66" departLane="best" departPos="random" departSpeed="0" from="-28231434" to="198876042#0"/>
  <flow id="motorcycle_-28231434_193253427#0_000659a6" type="motorcycle" begin="0" end="3600" vehsPerHour="52.06" departLane="best" departPos="random" departSpeed="0" from="-28231434" to="193253427#0"/>
  <flow id="motorcycle_-28231434_198876043#2_000659a6" type="motorcycle" begin="0" end="3600" vehsPerHour="46.36" departLane="best" departPos="random" departSpeed="0" from="-28231434" to="198876043#2"/>
  <flow id="motorcycle_-28231434_28231434_000659a6" type="motorcycle" begin="0" end="3600" vehsPerHour="38.71" departLane="best" departPos="random" departSpeed="0" from="-28231434" to="28231434"/>
  <flow id="car_-55029244#0_198876042#0_000659a6" type="car" begin="0" end="3600" vehsPerHour="27.09" departLane="best" departPos="random" departSpeed="0" from="-55029244#0" to="198876042#0"/>
  <flow id="car_-55029244#0_193253427#0_000659a6" type="car" begin="0" end="3600" vehsPerHour="24.38" departLane="best" departPos="random" departSpeed="0" from="-55029244#0" to="193253427#0"/>
  <flow id="car_-55029244#0_198876043#2_000659a6" type="car" begin="0" end="3600" vehsPerHour="19.82" departLane="best" departPos="random" departSpeed="0" from="-55029244#0" to="198876043#2"/>
  <flow id="car_-55029244#0_28231434_000659a6" type="car" begin="0" end="3600" vehsPerHour="16.89" departLane="best" departPos="random" departSpeed="0" from="-55029244#0" to="28231434"/>
  <flow id="car_-55029244#0_23241821#0_000659a6" type="car" begin="0" end="3600" vehsPerHour="13.73" departLane="best" departPos="random" departSpeed="0" from="-55029244#0" to="23241821#0"/>
  <flow id="motorcycle_-55029244#0_198876042#0_000659a6" type="motorcycle" begin="0" end="3600" vehsPerHour="82.65" departLane="best" departPos="random" departSpeed="0" from="-55029244#0" to="198876042#0"/>
  <flow id="motorcycle_-55029244#0_193253427#0_000659a6" type="motorcycle" begin="0" end="3600" vehsPerHour="64.53" departLane="best" departPos="random" departSpeed="0" from="-55029244#0" to="193253427#0"/>
  <flow id="motorcycle_-55029244#0_198876043#2_000659a6" type="motorcycle" begin="0" end="3600" vehsPerHour="62.36" departLane="best" departPos="random" departSpeed="0" from="-55029244#0" to="198876043#2"/>
  <flow id="motorcycle_-55029244#0_28231434_000659a6" type="motorcycle" begin="0" end="3600" vehsPerHour="53.73" departLane="best" departPos="random" departSpeed="0" from="-55029244#0" to="28231434"/>
  <flow id="motorcycle_-55029244#0_23241821#0_000659a6" type="motorcycle" begin="0" end="3600" vehsPerHour="47.59" departLane="best" departPos="random" departSpeed="0" from="-55029244#0" to="23241821#0"/>
  <flow id="car_34241530#0_198876042#0_000659a6" type="car" begin="0" end="3600" vehsPerHour="27.52" departLane="best" departPos="random" departSpeed="0" from="34241530#0" to="198876042#0"/>
  <flow id="car_34241530#0_193253427#0_000659a6" type="car" begin="0" end="3600" vehsPerHour="23.47" departLane="best" departPos="random" departSpeed="0" from="34241530#0" to="193253427#0"/>
  <flow id="car_34241530#0_198876043#2_000659a6" type="car" begin="0" end="3600" vehsPerHour="20.77" departLane="best" departPos="random" departSpeed="0" from="34241530#0" to="198876043#2"/>
  <flow id="car_34241530#0_28231434_000659a6" type="car" begin="0" end="3600" vehsPerHour="16.51" departLane="best" departPos="random" departSpeed="0" from="34241530#0" to="28231434"/>
  <flow id="car_34241530#0_23241821#0_000659a6" type="car" begin="0" end="3600" vehsPerHour="13.36" departLane="best" departPos="random" departSpeed="0" from="34241530#0" to="23241821#0"/>
  <flow id="motorcycle_34241530#0_198876042#0_000659a6" type="motorcycle" begin="0" end="3600" vehsPerHour="78.40" departLane="best" departPos="random" departSpeed="0" from="34241530#0" to="198876042#0"/>
  <flow id="motorcycle_34241530#0_193253427#0_000659a6" type="motorcycle" begin="0" end="3600" vehsPerHour="69.01" departLane="best" departPos="random" departSpeed="0" from="34241530#0" to="193253427#0"/>
  <flow id="motorcycle_34241530#0_198876043#2_000659a6" type="motorcycle" begin="0" end="3600" vehsPerHour="58.74" departLane="best" departPos="random" departSpeed="0" from="34241530#0" to="198876043#2"/>
  <flow id="motorcycle_34241530#0_28231434_000659a6" type="motorcycle" begin="0" end="3600" vehsPerHour="52.85" departLane="best" departPos="random" departSpeed="0" from="34241530#0" to="28231434"/>
  <flow id="motorcycle_34241530#0_23241821#0_000659a6" type="motorcycle" begin="0" end="3600" vehsPerHour="45.40" departLane="best" departPos="random" departSpeed="0" from="34241530#0" to="23241821#0"/>
  <flow id="truck_34241530#0_198876042#0_000659a6" type="truck" begin="0" end="3600" vehsPerHour="12.06" departLane="best" departPos="random" departSpeed="0" from="34241530#0" to="198876042#0"/>
</routes>
