<routes>
<vType id="car" vClass="passenger" accel="2.6" decel="4.5" sigma="0.5" length="5.0" maxSpeed="13.9"/>
<vType id="motorcycle" vClass="motorcycle" accel="3.0" decel="5.0" sigma="0.5" length="2.0" maxSpeed="14.0"/>
<vType id="truck" vClass="truck" accel="1.2" decel="3.5" sigma="0.5" length="12.0" maxSpeed="10.0"/>

  <flow id="car_222682222#1_193253427#0_000249ca" type="car" begin="0" end="3600" vehsPerHour="63.22" departLane="best" departPos="random" departSpeed="0" from="222682222#1" to="193253427#0"/>
  <flow id="car_222682222#1_198876043#0_000249ca" type="car" begin="0" end="3600" vehsPerHour="52.85" departLane="best" departPos="random" departSpeed="0" from="222682222#1" to="198876043#0"/>
  <flow id="car_222682222#1_28231434_000249ca" type="car" begin="0" end="3600" vehsPerHour="51.74" departLane="best" departPos="random" departSpeed="0" from="222682222#1" to="28231434"/>
  <flow id="car_222682222#1_23241821#0_000249ca" type="car" begin="0" end="3600" vehsPerHour="39.39" departLane="best" departPos="random" departSpeed="0" from="222682222#1" to="23241821#0"/>
  <flow id="car_222682222#1_198876042#0_000249ca" type="car" begin="0" end="3600" vehsPerHour="34.03" departLane="best" departPos="random" departSpeed="0" from="222682222#1" to="198876042#0"/>
  <flow id="motorcycle_222682222#1_193253427#0_000249ca" type="motorcycle" begin="0" end="3600" vehsPerHour="169.36" departLane="best" departPos="random" departSpeed="0" from="222682222#1" to="193253427#0"/>
  <flow id="motorcycle_222682222#1_198876043#0_000249ca" type="motorcycle" begin="0" end="3600" vehsPerHour="149.87" departLane="best" departPos="random" departSpeed="0" from="222682222#1" to="198876043#0"/>
  <flow id="motorcycle_222682222#1_28231434_000249ca" type="motorcycle" begin="0" end="3600" vehsPerHour="141.29" departLane="best" departPos="random" departSpeed="0" from="222682222#1" to="28231434"/>
  <flow id="motorcycle_222682222#1_23241821#0_000249ca" type="motorcycle" begin="0" end="3600" vehsPerHour="117.89" departLane="best" departPos="random" departSpeed="0" from="222682222#1" to="23241821#0"/>
  <flow id="motorcycle_222682222#1_198876042#0_000249ca" type="motorcycle" begin="0" end="3600" vehsPerHour="99.92" departLane="best" departPos="random" departSpeed="0" from="222682222#1" to="198876042#0"/>
  <flow id="car_193253433#2_198876043#0_000249ca" type="car" begin="0" end="3600" vehsPerHour="41.60" departLane="best" departPos="random" departSpeed="0" from="193253433#2" to="198876043#0"/>
  <flow id="car_193253433#2_28231434_000249ca" type="car" begin="0" end="3600" vehsPerHour="32.64" departLane="best" departPos="random" departSpeed="0" from="193253433#2" to="28231434"/>
  <flow id="car_193253433#2_23241821#0_000249ca" type="car" begin="0" end="3600" vehsPerHour="34.97" departLane="best" departPos="random" departSpeed="0" from="193253433#2" to="23241821#0"/>
  <flow id="car_193253433#2_198876042#0_000249ca" type="car" begin="0" end="3600" vehsPerHour="27.80" departLane="best" departPos="random" departSpeed="0" from="193253433#2" to="198876042#0"/>
  <flow id="car_193253433#2_193253427#0_000249ca" type="car" begin="0" end="3600" vehsPerHour="23.51" departLane="best" departPos="random" departSpeed="0" from="193253433#2" to="193253427#0"/>
  <flow id="motorcycle_193253433#2_198876043#0_000249ca" type="motorcycle" begin="0" end="3600" vehsPerHour="110.78" departLane="best" departPos="random" departSpeed="0" from="193253433#2" to="198876043#0"/>
  <flow id="motorcycle_193253433#2_28231434_000249ca" type="motorcycle" begin="0" end="3600" vehsPerHour="104.72" departLane="best" departPos="random" departSpeed="0" from="193253433#2" to="28231434"/>
  <flow id="motorcycle_193253433#2_23241821#0_000249ca" type="motorcycle" begin="0" end="3600" vehsPerHour="93.27" departLane="best" departPos="random" departSpeed="0" from="193253433#2" to="23241821#0"/>
  <flow id="motorcycle_193253433#2_198876042#0_000249ca" type="motorcycle" begin="0" end="3600" vehsPerHour="81.22" departLane="best" departPos="random" departSpeed="0" from="193253433#2" to="198876042#0"/>
  <flow id="motorcycle_193253433#2_193253427#0_000249ca" type="motorcycle" begin="0" end="3600" vehsPerHour="64.80" departLane="best" departPos="random" departSpeed="0" from="193253433#2" to="193253427#0"/>
  <flow id="car_198876045#1_28231434_000249ca" type="car" begin="0" end="3600" vehsPerHour="34.66" departLane="best" departPos="random" departSpeed="0" from="198876045#1" to="28231434"/>
  <flow id="car_198876045#1_23241821#0_000249ca" type="car" begin="0" end="3600" vehsPerHour="31.76" departLane="best" departPos="random" departSpeed="0" from="198876045#1" to="23241821#0"/>
  <flow id="car_198876045#1_198876042#0_000249ca" type="car" begin="0" end="3600" vehsPerHour="27.27" departLane="best" departPos="random" departSpeed="0" from="198876045#1" to="198876042#0"/>
  <flow id="car_198876045#1_193253427#0_000249ca" type="car" begin="0" end="3600" vehsPerHour="22.66" departLane="best" departPos="random" departSpeed="0" from="198876045#1" to="193253427#0"/>
  <flow id="car_198876045#1_198876043#2_000249ca" type="car" begin="0" end="3600" vehsPerHour="20.10" departLane="best" departPos="random" departSpeed="0" from="198876045#1" to="198876043#2"/>
  <flow id="motorcycle_198876045#1_28231434_000249ca" type="motorcycle" begin="0" end="3600" vehsPerHour="105.47" departLane="best" departPos="random" departSpeed="0" from="198876045#1" to="28231434"/>
  <flow id="motorcycle_198876045#1_23241821#0_000249ca" type="motorcycle" begin="0" end="3600" vehsPerHour="90.72" departLane="best" departPos="random" departSpeed="0" from="198876045#1" to="23241821#0"/>
  <flow id="motorcycle_198876045#1_198876042#0_000249ca" type="motorcycle" begin="0" end="3600" vehsPerHour="83.52" departLane="best" departPos="random" departSpeed="0" from="198876045#1" to="198876042#0"/>
  <flow id="motorcycle_198876045#1_193253427#0_000249ca" type="motorcycle" begin="0" end="3600" vehsPerHour="76.69" departLane="best" departPos="random" departSpeed="0" from="198876045#1" to="193253427#0"/>
  <flow id="motorcycle_198876045#1_198876043#2_000249ca" type="motorcycle" begin="0" end="3600" vehsPerHour="66.10" departLane="best" departPos="random" departSpeed="0" from="198876045#1" to="198876043#2"/>
  <flow id="car_-28231434_23241821#0_000249ca" type="car" begin="0" end="3600" vehsPerHour="24.48" departLane="best" departPos="random" departSpeed="0" from="-28231434" to="23241821#0"/>
  <flow id="car_-28231434_198876042#0_000249ca" type="car" begin="0" end="3600" vehsPerHour="20.94" departLane="best" departPos="random" departSpeed="0" from="-28231434" to="198876042#0"/>
  <flow id="car_-28231434_193253427#0_000249ca" type="car" begin="0" end="3600" vehsPerHour="16.13" departLane="best" departPos="random" departSpeed="0" from="-28231434" to="193253427#0"/>
  <flow id="car_-28231434_198876043#2_000249ca" type="car" begin="0" end="3600" vehsPerHour="16.52" departLane="best" departPos="random" departSpeed="0" from="-28231434" to="198876043#2"/>
  <flow id="car_-28231434_28231434_000249ca" type="car" begin="0" end="3600" vehsPerHour="14.00" departLane="best" departPos="random" departSpeed="0" from="-28231434" to="28231434"/>
  <flow id="motorcycle_-28231434_23241821#0_000249ca" type="motorcycle" begin="0" end="3600" vehsPerHour="66.32" departLane="best" departPos="random" departSpeed="0" from="-28231434" to="23241821#0"/>
  <flow id="motorcycle_-28231434_198876042#0_000249ca" type="motorcycle" begin="0" end="3600" vehsPerHour="62.97" departLane="best" departPos="random" departSpeed="0" from="-28231434" to="198876042#0"/>
  <flow id="motorcycle_-28231434_193253427#0_000249ca" type="motorcycle" begin="0" end="3600" vehsPerHour="54.70" departLane="best" departPos="random" departSpeed="0" from="-28231434" to="193253427#0"/>
  <flow id="motorcycle_-28231434_198876043#2_000249ca" type="motorcycle" begin="0" end="3600" vehsPerHour="44.86" departLane="best" departPos="random" departSpeed="0" from="-28231434" to="198876043#2"/>
  <flow id="motorcycle_-28231434_28231434_000249ca" type="motorcycle" begin="0" end="3600" vehsPerHour="42.23" departLane="best" departPos="random" departSpeed="0" from="-28231434" to="28231434"/>
  <flow id="car_-55029244#0_198876042#0_000249ca" type="car" begin="0" end="3600" vehsPerHour="26.60" departLane="best" departPos="random" departSpeed="0" from="-55029244#0" to="198876042#0"/>
  <flow id="car_-55029244#0_193253427#0_000249ca" type="car" begin="0" end="3600" vehsPerHour="22.64" departLane="best" departPos="random" departSpeed="0" from="-55029244#0" to="193253427#0"/>
  <flow id="car_-55029244#0_198876043#2_000249ca" type="car" begin="0" end="3600" vehsPerHour="20.60" departLane="best" departPos="random" departSpeed="0" from="-55029244#0" to="198876043#2"/>
  <flow id="car_-55029244#0_28231434_000249ca" type="car" begin="0" end="3600" vehsPerHour="17.68" departLane="best" departPos="random" departSpeed="0" from="-55029244#0" to="28231434"/>
  <flow id="car_-55029244#0_23241821#0_000249ca" type="car" begin="0" end="3600" vehsPerHour="13.18" departLane="best" departPos="random" departSpeed="0" from="-55029244#0" to="23241821#0"/>
  <flow id="motorcycle_-55029244#0_198876042#0_000249ca" type="motorcycle" begin="0" end="3600" vehsPerHour="80.47" departLane="best" departPos="random" departSpeed="0" from="-55029244#0" to="198876042#0"/>
  <flow id="motorcycle_-55029244#0_193253427#0_000249ca" type="motorcycle" begin="0" end="3600" vehsPerHour="68.43" departLane="best" departPos="random" departSpeed="0" from="-55029244#0" to="193253427#0"/>
  <flow id="motorcycle_-55029244#0_198876043#2_000249ca" type="motorcycle" begin="0" end="3600" vehsPerHour="62.41" departLane="best" departPos="random" departSpeed="0" from="-55029244#0" to="198876043#2"/>
  <flow id="motorcycle_-55029244#0_28231434_000249ca" type="motorcycle" begin="0" end="3600" vehsPerHour="54.27" departLane="best" departPos="random" departSpeed="0" from="-55029244#0" to="28231434"/>
  <flow id="motorcycle_-55029244#0_23241821#0_000249ca" type="motorcycle" begin="0" end="3600" vehsPerHour="49.36" departLane="best" departPos="random" departSpeed="0" from="-55029244#0" to="23241821#0"/>
  <flow id="car_34241530#0_198876042#0_000249ca" type="car" begin="0" end="3600" vehsPerHour="28.18" departLane="best" departPos="random" departSpeed="0" from="34241530#0" to="198876042#0"/>
  <flow id="car_34241530#0_193253427#0_000249ca" type="car" begin="0" end="3600" vehsPerHour="22.63" departLane="best" departPos="random" departSpeed="0" from="34241530#0" to="193253427#0"/>
  <flow id="car_34241530#0_198876043#2_000249ca" type="car" begin="0" end="3600" vehsPerHour="19.27" departLane="best" departPos="random" departSpeed="0" from="34241530#0" to="198876043#2"/>
  <flow id="car_34241530#0_28231434_000249ca" type="car" begin="0" end="3600" vehsPerHour="16.99" departLane="best" departPos="random" departSpeed="0" from="34241530#0" to="28231434"/>
  <flow id="car_34241530#0_23241821#0_000249ca" type="car" begin="0" end="3600" vehsPerHour="13.44" departLane="best" departPos="random" departSpeed="0" from="34241530#0" to="23241821#0"/>
  <flow id="motorcycle_34241530#0_198876042#0_000249ca" type="motorcycle" begin="0" end="3600" vehsPerHour="77.68" departLane="best" departPos="random" departSpeed="0" from="34241530#0" to="198876042#0"/>
  <flow id="motorcycle_34241530#0_193253427#0_000249ca" type="motorcycle" begin="0" end="3600" vehsPerHour="69.05" departLane="best" departPos="random" departSpeed="0" from="34241530#0" to="193253427#0"/>
  <flow id="motorcycle_34241530#0_198876043#2_000249ca" type="motorcycle" begin="0" end="3600" vehsPerHour="62.05" departLane="best" departPos="random" departSpeed="0" from="34241530#0" to="198876043#2"/>
  <flow id="motorcycle_34241530#0_28231434_000249ca" type="motorcycle" begin="0" end="3600" vehsPerHour="52.59" departLane="best" departPos="random" departSpeed="0" from="34241530#0" to="28231434"/>
  <flow id="motorcycle_34241530#0_23241821#0_000249ca" type="motorcycle" begin="0" end="3600" vehsPerHour="45.70" departLane="best" departPos="random" departSpeed="0" from="34241530#0" to="23241821#0"/>
  <flow id="truck_34241530#0_198876042#0_000249ca" type="truck" begin="0" end="3600" vehsPerHour="12.09" departLane="best" departPos="random" departSpeed="0" from="34241530#0" to="198876042#0"/>
</routes>
