<routes>
<vType id="car" vClass="passenger" accel="2.6" decel="4.5" sigma="0.5" length="5.0" maxSpeed="13.9"/>
<vType id="motorcycle" vClass="motorcycle" accel="3.0" decel="5.0" sigma="0.5" length="2.0" maxSpeed="14.0"/>
<vType id="truck" vClass="truck" accel="1.2" decel="3.5" sigma="0.5" length="12.0" maxSpeed="10.0"/>

  <flow id="car_222682222#1_193253427#0_000b56b3" type="car" begin="0" end="3600" vehsPerHour="61.14" departLane="best" departPos="random" departSpeed="0" from="222682222#1" to="193253427#0"/>
  <flow id="car_222682222#1_198876043#0_000b56b3" type="car" begin="0" end="3600" vehsPerHour="52.62" departLane="best" departPos="random" departSpeed="0" from="222682222#1" to="198876043#0"/>
  <flow id="car_222682222#1_28231434_000b56b3" type="car" begin="0" end="3600" vehsPerHour="52.03" departLane="best" departPos="random" departSpeed="0" from="222682222#1" to="28231434"/>
  <flow id="car_222682222#1_23241821#0_000b56b3" type="car" begin="0" end="3600" vehsPerHour="41.14" departLane="best" departPos="random" departSpeed="0" from="222682222#1" to="23241821#0"/>
  <flow id="car_222682222#1_198876042#0_000b56b3" type="car" begin="0" end="3600" vehsPerHour="34.60" departLane="best" departPos="random" departSpeed="0" from="222682222#1" to="198876042#0"/>
  <flow id="motorcycle_222682222#1_193253427#0_000b56b3" type="motorcycle" begin="0" end="3600" vehsPerHour="174.76" departLane="best" departPos="random" departSpeed="0" from="222682222#1" to="193253427#0"/>
  <flow id="motorcycle_222682222#1_198876043#0_000b56b3" type="motorcycle" begin="0" end="3600" vehsPerHour="147.73" departLane="best" departPos="random" departSpeed="0" from="222682222#1" to="198876043#0"/>
  <flow id="motorcycle_222682222#1_28231434_000b56b3" type="motorcycle" begin="0" end="3600" vehsPerHour="141.48" departLane="best" departPos="random" departSpeed="0" from="222682222#1" to="28231434"/>
  <flow id="motorcycle_222682222#1_23241821#0_000b56b3" type="motorcycle" begin="0" end="3600" vehsPerHour="114.92" departLane="best" departPos="random" departSpeed="0" from="222682222#1" to="23241821#0"/>
  <flow id="motorcycle_222682222#1_198876042#0_000b56b3" type="motorcycle" begin="0" end="3600" vehsPerHour="102.94" departLane="best" departPos="random" departSpeed="0" from="222682222#1" to="198876042#0"/>
  <flow id="car_193253433#2_198876043#0_000b56b3" type="car" begin="0" end="3600" vehsPerHour="41.93" departLane="best" departPos="random" departSpeed="0" from="193253433#2" to="198876043#0"/>
  <flow id="car_193253433#2_28231434_000b56b3" type="car" begin="0" end="3600" vehsPerHour="32.96" departLane="best" departPos="random" departSpeed="0" from="193253433#2" to="28231434"/>
  <flow id="car_193253433#2_23241821#0_000b56b3" type="car" begin="0" end="3600" vehsPerHour="32.82" departLane="best" departPos="random" departSpeed="0" from="193253433#2" to="23241821#0"/>
  <flow id="car_193253433#2_198876042#0_000b56b3" type="car" begin="0" end="3600" vehsPerHour="27.45" departLane="best" departPos="random" departSpeed="0" from="193253433#2" to="198876042#0"/>
  <flow id="car_193253433#2_193253427#0_000b56b3" type="car" begin="0" end="3600" vehsPerHour="23.05" departLane="best" departPos="random" departSpeed="0" from="193253433#2" to="193253427#0"/>
  <flow id="motorcycle_193253433#2_198876043#0_000b56b3" type="motorcycle" begin="0" end="3600" vehsPerHour="110.11" departLane="best" departPos="random" departSpeed="0" from="193253433#2" to="198876043#0"/>
  <flow id="motorcycle_193253433#2_28231434_000b56b3" type="motorcycle" begin="0" end="3600" vehsPerHour="102.01" departLane="best" departPos="random" departSpeed="0" from="193253433#2" to="28231434"/>
  <flow id="motorcycle_193253433#2_23241821#0_000b56b3" type="motorcycle" begin="0" end="3600" vehsPerHour="91.08" departLane="best" departPos="random" departSpeed="0" from="193253433#2" to="23241821#0"/>
  <flow id="motorcycle_193253433#2_198876042#0_000b56b3" type="motorcycle" begin="0" end="3600" vehsPerHour="83.12" departLane="best" departPos="random" departSpeed="0" from="193253433#2" to="198876042#0"/>
  <flow id="motorcycle_193253433#2_193253427#0_000b56b3" type="motorcycle" begin="0" end="3600" vehsPerHour="68.56" departLane="best" departPos="random" departSpeed="0" from="193253433#2" to="193253427#0"/>
  <flow id="car_198876045#1_28231434_000b56b3" type="car" begin="0" end="3600" vehsPerHour="33.02" departLane="best" departPos="random" departSpeed="0" from="198876045#1" to="28231434"/>
  <flow id="car_198876045#1_23241821#0_000b56b3" type="car" begin="0" end="3600" vehsPerHour="31.77" departLane="best" departPos="random" departSpeed="0" from="198876045#1" to="23241821#0"/>
  <flow id="car_198876045#1_198876042#0_000b56b3" type="car" begin="0" end="3600" vehsPerHour="27.63" departLane="best" departPos="random" departSpeed="0" from="198876045#1" to="198876042#0"/>
  <flow id="car_198876045#1_193253427#0_000b56b3" type="car" begin="0" end="3600" vehsPerHour="24.16" departLane="best" departPos="random" departSpeed="0" from="198876045#1" to="193253427#0"/>
  <flow id="car_198876045#1_198876043#2_000b56b3" type="car" begin="0" end="3600" vehsPerHour="20.37" departLane="best" departPos="random" departSpeed="0" from="198876045#1" to="198876043#2"/>
  <flow id="motorcycle_198876045#1_28231434_000b56b3" type="motorcycle" begin="0" end="3600" vehsPerHour="105.54" departLane="best" departPos="random" departSpeed="0" from="198876045#1" to="28231434"/>
  <flow id="motorcycle_198876045#1_23241821#0_000b56b3" type="motorcycle" begin="0" end="3600" vehsPerHour="88.03" departLane="best" departPos="random" departSpeed="0" from="198876045#1" to="23241821#0"/>
  <flow id="motorcycle_198876045#1_198876042#0_000b56b3" type="motorcycle" begin="0" end="3600" vehsPerHour="79.32" departLane="best" departPos="random" departSpeed="0" from="198876045#1" to="198876042#0"/>
  <flow id="motorcycle_198876045#1_193253427#0_000b56b3" type="motorcycle" begin="0" end="3600" vehsPerHour="76.64" departLane="best" departPos="random" departSpeed="0" from="198876045#1" to="193253427#0"/>
  <flow id="motorcycle_198876045#1_198876043#2_000b56b3" type="motorcycle" begin="0" end="3600" vehsPerHour="70.51" departLane="best" departPos="random" departSpeed="0" from="198876045#1" to="198876043#2"/>
  <flow id="car_-28231434_23241821#0_000b56b3" type="car" begin="0" end="3600" vehsPerHour="23.48" departLane="best" departPos="random" departSpeed="0" from="-28231434" to="23241821#0"/>
  <flow id="car_-28231434_198876042#0_000b56b3" type="car" begin="0" end="3600" vehsPerHour="20.79" departLane="best" departPos="random" departSpeed="0" from="-28231434" to="198876042#0"/>
  <flow id="car_-28231434_193253427#0_000b56b3" type="car" begin="0" end="3600" vehsPerHour="17.36" departLane="best" departPos="random" departSpeed="0" from="-28231434" to="193253427#0"/>
  <flow id="car_-28231434_198876043#2_000b56b3" type="car" begin="0" end="3600" vehsPerHour="17.48" departLane="best" departPos="random" departSpeed="0" from="-28231434" to="198876043#2"/>
  <flow id="car_-28231434_28231434_000b56b3" type="car" begin="0" end="3600" vehsPerHour="13.43" departLane="best" departPos="random" departSpeed="0" from="-28231434" to="28231434"/>
  <flow id="motorcycle_-28231434_23241821#0_000b56b3" type="motorcycle" begin="0" end="3600" vehsPerHour="68.42" departLane="best" departPos="random" departSpeed="0" from="-28231434" to="23241821#0"/>
  <flow id="motorcycle_-28231434_198876042#0_000b56b3" type="motorcycle" begin="0" end="3600" vehsPerHour="62.89" departLane="best" departPos="random" departSpeed="0" from="-28231434" to="198876042#0"/>
  <flow id="motorcycle_-28231434_193253427#0_000b56b3" type="motorcycle" begin="0" end="3600" vehsPerHour="55.44" departLane="best" departPos="random" departSpeed="0" from="-28231434" to="193253427#0"/>
  <flow id="motorcycle_-28231434_198876043#2_000b56b3" type="motorcycle" begin="0" end="3600" vehsPerHour="49.45" departLane="best" departPos="random" departSpeed="0" from="-28231434" to="198876043#2"/>
  <flow id="motorcycle_-28231434_28231434_000b56b3" type="motorcycle" begin="0" end="3600" vehsPerHour="40.68" departLane="best" departPos="random" departSpeed="0" from="-28231434" to="28231434"/>
  <flow id="car_-55029244#0_198876042#0_000b56b3" type="car" begin="0" end="3600" vehsPerHour="26.37" departLane="best" departPos="random" departSpeed="0" from="-55029244#0" to="198876042#0"/>
  <flow id="car_-55029244#0_193253427#0_000b56b3" type="car" begin="0" end="3600" vehsPerHour="23.94" departLane="best" departPos="random" departSpeed="0" from="-55029244#0" to="193253427#0"/>
  <flow id="car_-55029244#0_198876043#2_000b56b3" type="car" begin="0" end="3600" vehsPerHour="20.18" departLane="best" departPos="random" departSpeed="0" from="-55029244#0" to="198876043#2"/>
  <flow id="car_-55029244#0_28231434_000b56b3" type="car" begin="0" end="3600" vehsPerHour="16.37" departLane="best" departPos="random" departSpeed="0" from="-55029244#0" to="28231434"/>
  <flow id="car_-55029244#0_23241821#0_000b56b3" type="car" begin="0" end="3600" vehsPerHour="14.02" departLane="best" departPos="random" departSpeed="0" from="-55029244#0" to="23241821#0"/>
  <flow id="motorcycle_-55029244#0_198876042#0_000b56b3" type="motorcycle" begin="0" end="3600" vehsPerHour="82.60" departLane="best" departPos="random" departSpeed="0" from="-55029244#0" to="198876042#0"/>
  <flow id="motorcycle_-55029244#0_193253427#0_000b56b3" type="motorcycle" begin="0" end="3600" vehsPerHour="66.02" departLane="best" departPos="random" departSpeed="0" from="-55029244#0" to="193253427#0"/>
  <flow id="motorcycle_-55029244#0_198876043#2_000b56b3" type="motorcycle" begin="0" end="3600" vehsPerHour="60.71" departLane="best" departPos="random" departSpeed="0" from="-55029244#0" to="198876043#2"/>
  <flow id="motorcycle_-55029244#0_28231434_000b56b3" type="motorcycle" begin="0" end="3600" vehsPerHour="56.44" departLane="best" departPos="random" departSpeed="0" from="-55029244#0" to="28231434"/>
  <flow id="motorcycle_-55029244#0_23241821#0_000b56b3" type="motorcycle" begin="0" end="3600" vehsPerHour="48.23" departLane="best" departPos="random" departSpeed="0" from="-55029244#0" to="23241821#0"/>
  <flow id="car_34241530#0_198876042#0_000b56b3" type="car" begin="0" end="3600" vehsPerHour="27.52" departLane="best" departPos="random" departSpeed="0" from="34241530#0" to="198876042#0"/>
  <flow id="car_34241530#0_193253427#0_000b56b3" type="car" begin="0" end="3600" vehsPerHour="23.26" departLane="best" departPos="random" departSpeed="0" from="34241530#0" to="193253427#0"/>
  <flow id="car_34241530#0_198876043#2_000b56b3" type="car" begin="0" end="3600" vehsPerHour="19.73" departLane="best" departPos="random" departSpeed="0" from="34241530#0" to="198876043#2"/>
  <flow id="car_34241530#0_28231434_000b56b3" type="car" begin="0" end="3600" vehsPerHour="17.27" departLane="best" departPos="random" departSpeed="0" from="34241530#0" to="28231434"/>
  <flow id="car_34241530#0_23241821#0_000b56b3" type="car" begin="0" end="3600" vehsPerHour="13.67" departLane="best" departPos="random" departSpeed="0" from="34241530#0" to="23241821#0"/>
  <flow id="motorcycle_34241530#0_198876042#0_000b56b3" type="motorcycle" begin="0" end="3600" vehsPerHour="84.06" departLane="best" departPos="random" departSpeed="0" from="34241530#0" to="198876042#0"/>
  <flow id="motorcycle_34241530#0_193253427#0_000b56b3" type="motorcycle" begin="0" end="3600" vehsPerHour="67.96" departLane="best" departPos="random" departSpeed="0" from="34241530#0" to="193253427#0"/>
  <flow id="motorcycle_34241530#0_198876043#2_000b56b3" type="motorcycle" begin="0" end="3600" vehsPerHour="62.76" departLane="best" departPos="random" departSpeed="0" from="34241530#0" to="198876043#2"/>
  <flow id="motorcycle_34241530#0_28231434_000b56b3" type="motorcycle" begin="0" end="3600" vehsPerHour="51.91" departLane="best" departPos="random" departSpeed="0" from="34241530#0" to="28231434"/>
  <flow id="motorcycle_34241530#0_23241821#0_000b56b3" type="motorcycle" begin="0" end="3600" vehsPerHour="48.16" departLane="best" departPos="random" departSpeed="0" from="34241530#0" to="23241821#0"/>
  <flow id="truck_34241530#0_198876042#0_000b56b3" type="truck" begin="0" end="3600" vehsPerHour="12.24" departLane="best" departPos="random" departSpeed="0" from="34241530#0" to="198876042#0"/>
</routes>
