<routes>
<vType id="car" vClass="passenger" accel="2.6" decel="4.5" sigma="0.5" length="5.0" maxSpeed="13.9"/>
<vType id="motorcycle" vClass="motorcycle" accel="3.0" decel="5.0" sigma="0.5" length="2.0" maxSpeed="14.0"/>
<vType id="truck" vClass="truck" accel="1.2" decel="3.5" sigma="0.5" length="12.0" maxSpeed="10.0"/>

  <flow id="car_222682222#1_193253427#0_00014cd6" type="car" begin="0" end="3600" vehsPerHour="58.64" departLane="best" departPos="random" departSpeed="0" from="222682222#1" to="193253427#0"/>
  <flow id="car_222682222#1_198876043#0_00014cd6" type="car" begin="0" end="3600" vehsPerHour="51.54" departLane="best" departPos="random" departSpeed="0" from="222682222#1" to="198876043#0"/>
  <flow id="car_222682222#1_28231434_00014cd6" type="car" begin="0" end="3600" vehsPerHour="49.92" departLane="best" departPos="random" departSpeed="0" from="222682222#1" to="28231434"/>
  <flow id="car_222682222#1_23241821#0_00014cd6" type="car" begin="0" end="3600" vehsPerHour="38.57" departLane="best" departPos="random" departSpeed="0" from="222682222#1" to="23241821#0"/>
  <flow id="car_222682222#1_198876042#0_00014cd6" type="car" begin="0" end="3600" vehsPerHour="32.55" departLane="best" departPos="random" departSpeed="0" from="222682222#1" to="198876042#0"/>
  <flow id="motorcycle_222682222#1_193253427#0_00014cd6" type="motorcycle" begin="0" end="3600" vehsPerHour="182.42" departLane="best" departPos="random" departSpeed="0" from="222682222#1" to="193253427#0"/>
  <flow id="motorcycle_222682222#1_198876043#0_00014cd6" type="motorcycle" begin="0" end="3600" vehsPerHour="162.48" departLane="best" departPos="random" departSpeed="0" from="222682222#1" to="198876043#0"/>
  <flow id="motorcycle_222682222#1_28231434_00014cd6" type="motorcycle" begin="0" end="3600" vehsPerHour="135.21" departLane="best" departPos="random" departSpeed="0" from="222682222#1" to="28231434"/>
  <flow id="motorcycle_222682222#1_23241821#0_00014cd6" type="motorcycle" begin="0" end="3600" vehsPerHour="114.32" departLane="best" departPos="random" departSpeed="0" from="222682222#1" to="23241821#0"/>
  <flow id="motorcycle_222682222#1_198876042#0_00014cd6" type="motorcycle" begin="0" end="3600" vehsPerHour="102.08" departLane="best" departPos="random" departSpeed="0" from="222682222#1" to="198876042#0"/>
  <flow id="car_193253433#2_198876043#0_00014cd6" type="car" begin="0" end="3600" vehsPerHour="38.84" departLane="best" departPos="random" departSpeed="0" from="193253433#2" to="198876043#0"/>
  <flow id="car_193253433#2_28231434_00014cd6" type="car" begin="0" end="3600" vehsPerHour="32.15" departLane="best" departPos="random" departSpeed="0" from="193253433#2" to="28231434"/>
  <flow id="car_193253433#2_23241821#0_00014cd6" type="car" begin="0" end="3600" vehsPerHour="33.85" departLane="best" departPos="random" departSpeed="0" from="193253433#2" to="23241821#0"/>
  <flow id="car_193253433#2_198876042#0_00014cd6" type="car" begin="0" end="3600" vehsPerHour="26.64" departLane="best" departPos="random" departSpeed="0" from="193253433#2" to="198876042#0"/>
  <flow id="car_193253433#2_193253427#0_00014cd6" type="car" begin="0" end="3600" vehsPerHour="24.68" departLane="best" departPos="random" departSpeed="0" from="193253433#2" to="193253427#0"/>
  <flow id="motorcycle_193253433#2_198876043#0_00014cd6" type="motorcycle" begin="0" end="3600" vehsPerHour="117.36" departLane="best" departPos="random" departSpeed="0" from="193253433#2" to="198876043#0"/>
  <flow id="motorcycle_193253433#2_28231434_00014cd6" type="motorcycle" begin="0" end="3600" vehsPerHour="96.11" departLane="best" departPos="random" departSpeed="0" from="193253433#2" to="28231434"/>
  <flow id="motorcycle_193253433#2_23241821#0_00014cd6" type="motorcycle" begin="0" end="3600" vehsPerHour="93.53" departLane="best" departPos="random" departSpeed="0" from="193253433#2" to="23241821#0"/>
  <flow id="motorcycle_193253433#2_198876042#0_00014cd6" type="motorcycle" begin="0" end="3600" vehsPerHour="81.01" departLane="best" departPos="random" departSpeed="0" from="193253433#2" to="198876042#0"/>
  <flow id="motorcycle_193253433#2_193253427#0_00014cd6" type="motorcycle" begin="0" end="3600" vehsPerHour="67.55" departLane="best" departPos="random" departSpeed="0" from="193253433#2" to="193253427#0"/>
  <flow id="car_198876045#1_28231434_00014cd6" type="car" begin="0" end="3600" vehsPerHour="34.48" departLane="best" departPos="random" departSpeed="0" from="198876045#1" to="28231434"/>
  <flow id="car_198876045#1_23241821#0_00014cd6" type="car" begin="0" end="3600" vehsPerHour="28.98" departLane="best" departPos="random" departSpeed="0" from="198876045#1" to="23241821#0"/>
  <flow id="car_198876045#1_198876042#0_00014cd6" type="car" begin="0" end="3600" vehsPerHour="26.42" departLane="best" departPos="random" departSpeed="0" from="198876045#1" to="198876042#0"/>
  <flow id="car_198876045#1_193253427#0_00014cd6" type="car" begin="0" end="3600" vehsPerHour="22.79" departLane="best" departPos="random" departSpeed="0" from="198876045#1" to="193253427#0"/>
  <flow id="car_198876045#1_198876043#2_00014cd6" type="car" begin="0" end="3600" vehsPerHour="19.46" departLane="best" departPos="random" departSpeed="0" from="198876045#1" to="198876043#2"/>
  <flow id="motorcycle_198876045#1_28231434_00014cd6" type="motorcycle" begin="0" end="3600" vehsPerHour="100.97" departLane="best" departPos="random" departSpeed="0" from="198876045#1" to="28231434"/>
  <flow id="motorcycle_198876045#1_23241821#0_00014cd6" type="motorcycle" begin="0" end="3600" vehsPerHour="83.95" departLane="best" departPos="random" departSpeed="0" from="198876045#1" to="23241821#0"/>
  <flow id="motorcycle_198876045#1_198876042#0_00014cd6" type="motorcycle" begin="0" end="3600" vehsPerHour="79.82" departLane="best" departPos="random" departSpeed="0" from="198876045#1" to="198876042#0"/>
  <flow id="motorcycle_198876045#1_193253427#0_00014cd6" type="motorcycle" begin="0" end="3600" vehsPerHour="73.61" departLane="best" departPos="random" departSpeed="0" from="198876045#1" to="193253427#0"/>
  <flow id="motorcycle_198876045#1_198876043#2_00014cd6" type="motorcycle" begin="0" end="3600" vehsPerHour="69.44" departLane="best" departPos="random" departSpeed="0" from="198876045#1" to="198876043#2"/>
  <flow id="car_-28231434_23241821#0_00014cd6" type="car" begin="0" end="3600" vehsPerHour="22.55" departLane="best" departPos="random" departSpeed="0" from="-28231434" to="23241821#0"/>
  <flow id="car_-28231434_198876042#0_00014cd6" type="car" begin="0" end="3600" vehsPerHour="19.81" departLane="best" departPos="random" departSpeed="0" from="-28231434" to="198876042#0"/>
  <flow id="car_-28231434_193253427#0_00014cd6" type="car" begin="0" end="3600" vehsPerHour="17.09" departLane="best" departPos="random" departSpeed="0" from="-28231434" to="193253427#0"/>
  <flow id="car_-28231434_198876043#2_00014cd6" type="car" begin="0" end="3600" vehsPerHour="17.22" departLane="best" departPos="random" departSpeed="0" from="-28231434" to="198876043#2"/>
  <flow id="car_-28231434_28231434_00014cd6" type="car" begin="0" end="3600" vehsPerHour="13.88" departLane="best" departPos="random" departSpeed="0" from="-28231434" to="28231434"/>
  <flow id="motorcycle_-28231434_23241821#0_00014cd6" type="motorcycle" begin="0" end="3600" vehsPerHour="70.03" departLane="best" departPos="random" departSpeed="0" from="-28231434" to="23241821#0"/>
  <flow id="motorcycle_-28231434_198876042#0_00014cd6" type="motorcycle" begin="0" end="3600" vehsPerHour="60.65" departLane="best" departPos="random" departSpeed="0" from="-28231434" to="198876042#0"/>
  <flow id="motorcycle_-28231434_193253427#0_00014cd6" type="motorcycle" begin="0" end="3600" vehsPerHour="51.45" departLane="best" departPos="random" departSpeed="0" from="-28231434" to="193253427#0"/>
  <flow id="motorcycle_-28231434_198876043#2_00014cd6" type="motorcycle" begin="0" end="3600" vehsPerHour="45.84" departLane="best" departPos="random" departSpeed="0" from="-28231434" to="198876043#2"/>
  <flow id="motorcycle_-28231434_28231434_00014cd6" type="motorcycle" begin="0" end="3600" vehsPerHour="40.06" departLane="best" departPos="random" departSpeed="0" from="-28231434" to="28231434"/>
  <flow id="car_-55029244#0_198876042#0_00014cd6" type="car" begin="0" end="3600" vehsPerHour="27.19" departLane="best" departPos="random" departSpeed="0" from="-55029244#0" to="198876042#0"/>
  <flow id="car_-55029244#0_193253427#0_00014cd6" type="car" begin="0" end="3600" vehsPerHour="24.27" departLane="best" departPos="random" departSpeed="0" from="-55029244#0" to="193253427#0"/>
  <flow id="car_-55029244#0_198876043#2_00014cd6" type="car" begin="0" end="3600" vehsPerHour="20.30" departLane="best" departPos="random" departSpeed="0" from="-55029244#0" to="198876043#2"/>
  <flow id="car_-55029244#0_28231434_00014cd6" type="car" begin="0" end="3600" vehsPerHour="16.11" departLane="best" departPos="random" departSpeed="0" from="-55029244#0" to="28231434"/>
  <flow id="car_-55029244#0_23241821#0_00014cd6" type="car" begin="0" end="3600" vehsPerHour="12.93" departLane="best" departPos="random" departSpeed="0" from="-55029244#0" to="23241821#0"/>
  <flow id="motorcycle_-55029244#0_198876042#0_00014cd6" type="motorcycle" begin="0" end="3600" vehsPerHour="83.57" departLane="best" departPos="random" departSpeed="0" from="-55029244#0" to="198876042#0"/>
  <flow id="motorcycle_-55029244#0_193253427#0_00014cd6" type="motorcycle" begin="0" end="3600" vehsPerHour="64.22" departLane="best" departPos="random" departSpeed="0" from="-55029244#0" to="193253427#0"/>
  <flow id="motorcycle_-55029244#0_198876043#2_00014cd6" type="motorcycle" begin="0" end="3600" vehsPerHour="59.01" departLane="best" departPos="random" departSpeed="0" from="-55029244#0" to="198876043#2"/>
  <flow id="motorcycle_-55029244#0_28231434_00014cd6" type="motorcycle" begin="0" end="3600" vehsPerHour="53.95" departLane="best" departPos="random" departSpeed="0" from="-55029244#0" to="28231434"/>
  <flow id="motorcycle_-55029244#0_23241821#0_00014cd6" type="motorcycle" begin="0" end="3600" vehsPerHour="48.55" departLane="best" departPos="random" departSpeed="0" from="-55029244#0" to="23241821#0"/>
  <flow id="car_34241530#0_198876042#0_00014cd6" type="car" begin="0" end="3600" vehsPerHour="27.71" departLane="best" departPos="random" departSpeed="0" from="34241530#0" to="198876042#0"/>
  <flow id="car_34241530#0_193253427#0_00014cd6" type="car" begin="0" end="3600" vehsPerHour="24.28" departLane="best" departPos="random" departSpeed="0" from="34241530#0" to="193253427#0"/>
  <flow id="car_34241530#0_198876043#2_00014cd6" type="car" begin="0" end="3600" vehsPerHour="19.73" departLane="best" departPos="random" departSpeed="0" from="34241530#0" to="198876043#2"/>
  <flow id="car_34241530#0_28231434_00014cd6" type="car" begin="0" end="3600" vehsPerHour="16.30" departLane="best" departPos="random" departSpeed="0" from="34241530#0" to="28231434"/>
  <flow id="car_34241530#0_23241821#0_00014cd6" type="car" begin="0" end="3600" vehsPerHour="13.63" departLane="best" departPos="random" departSpeed="0" from="34241530#0" to="23241821#0"/>
  <flow id="motorcycle_34241530#0_198876042#0_00014cd6" type="motorcycle" begin="0" end="3600" vehsPerHour="84.19" departLane="best" departPos="random" departSpeed="0" from="34241530#0" to="198876042#0"/>
  <flow id="motorcycle_34241530#0_193253427#0_00014cd6" type="motorcycle" begin="0" end="3600" vehsPerHour="70.43" departLane="best" departPos="random" departSpeed="0" from="34241530#0" to="193253427#0"/>
  <flow id="motorcycle_34241530#0_198876043#2_00014cd6" type="motorcycle" begin="0" end="3600" vehsPerHour="58.14" departLane="best" departPos="random" departSpeed="0" from="34241530#0" to="198876043#2"/>
  <flow id="motorcycle_34241530#0_28231434_00014cd6" type="motorcycle" begin="0" end="3600" vehsPerHour="53.33" departLane="best" departPos="random" departSpeed="0" from="34241530#0" to="28231434"/>
  <flow id="motorcycle_34241530#0_23241821#0_00014cd6" type="motorcycle" begin="0" end="3600" vehsPerHour="46.29" departLane="best" departPos="random" departSpeed="0" from="34241530#0" to="23241821#0"/>
  <flow id="truck_34241530#0_198876042#0_00014cd6" type="truck" begin="0" end="3600" vehsPerHour="11.42" departLane="best" departPos="random" departSpeed="0" from="34241530#0" to="198876042#0"/>
</routes>
