<routes>
<vType id="car" vClass="passenger" accel="2.6" decel="4.5" sigma="0.5" length="5.0" maxSpeed="13.9"/>
<vType id="motorcycle" vClass="motorcycle" accel="3.0" decel="5.0" sigma="0.5" length="2.0" maxSpeed="14.0"/>
<vType id="truck" vClass="truck" accel="1.2" decel="3.5" sigma="0.5" length="12.0" maxSpeed="10.0"/>

  <flow id="car_222682222#1_193253427#0_0002d12b" type="car" begin="0" end="3600" vehsPerHour="61.08" departLane="best" departPos="random" departSpeed="0" from="222682222#1" to="193253427#0"/>
  <flow id="car_222682222#1_198876043#0_0002d12b" type="car" begin="0" end="3600" vehsPerHour="51.04" departLane="best" departPos="random" departSpeed="0" from="222682222#1" to="198876043#0"/>
  <flow id="car_222682222#1_28231434_0002d12b" type="car" begin="0" end="3600" vehsPerHour="50.87" departLane="best" departPos="random" departSpeed="0" from="222682222#1" to="28231434"/>
  <flow id="car_222682222#1_23241821#0_0002d12b" type="car" begin="0" end="3600" vehsPerHour="39.50" departLane="best" departPos="random" departSpeed="0" from="222682222#1" to="23241821#0"/>
  <flow id="car_222682222#1_198876042#0_0002d12b" type="car" begin="0" end="3600" vehsPerHour="32.44" departLane="best" departPos="random" departSpeed="0" from="222682222#1" to="198876042#0"/>
  <flow id="motorcycle_222682222#1_193253427#0_0002d12b" type="motorcycle" begin="0" end="3600" vehsPerHour="178.99" departLane="best" departPos="random" departSpeed="0" from="222682222#1" to="193253427#0"/>
  <flow id="motorcycle_222682222#1_198876043#0_0002d12b" type="motorcycle" begin="0" end="3600" vehsPerHour="159.34" departLane="best" departPos="random" departSpeed="0" from="222682222#1" to="198876043#0"/>
  <flow id="motorcycle_222682222#1_28231434_0002d12b" type="motorcycle" begin="0" end="3600" vehsPerHour="134.68" departLane="best" departPos="random" departSpeed="0" from="222682222#1" to="28231434"/>
  <flow id="motorcycle_222682222#1_23241821#0_0002d12b" type="motorcycle" begin="0" end="3600" vehsPerHour="117.79" departLane="best" departPos="random" departSpeed="0" from="222682222#1" to="23241821#0"/>
  <flow id="motorcycle_222682222#1_198876042#0_0002d12b" type="motorcycle" begin="0" end="3600" vehsPerHour="97.26" departLane="best" departPos="random" departSpeed="0" from="222682222#1" to="198876042#0"/>
  <flow id="car_193253433#2_198876043#0_0002d12b" type="car" begin="0" end="3600" vehsPerHour="40.57" departLane="best" departPos="random" departSpeed="0" from="193253433#2" to="198876043#0"/>
  <flow id="car_193253433#2_28231434_0002d12b" type="car" begin="0" end="3600" vehsPerHour="34.31" departLane="best" departPos="random" departSpeed="0" from="193253433#2" to="28231434"/>
  <flow id="car_193253433#2_23241821#0_0002d12b" type="car" begin="0" end="3600" vehsPerHour="34.37" departLane="best" departPos="random" departSpeed="0" from="193253433#2" to="23241821#0"/>
  <flow id="car_193253433#2_198876042#0_0002d12b" type="car" begin="0" end="3600" vehsPerHour="27.95" departLane="best" departPos="random" departSpeed="0" from="193253433#2" to="198876042#0"/>
  <flow id="car_193253433#2_193253427#0_0002d12b" type="car" begin="0" end="3600" vehsPerHour="22.72" departLane="best" departPos="random" departSpeed="0" from="193253433#2" to="193253427#0"/>
  <flow id="motorcycle_193253433#2_198876043#0_0002d12b" type="motorcycle" begin="0" end="3600" vehsPerHour="112.58" departLane="best" departPos="random" departSpeed="0" from="193253433#2" to="198876043#0"/>
  <flow id="motorcycle_193253433#2_28231434_0002d12b" type="motorcycle" begin="0" end="3600" vehsPerHour="104.96" departLane="best" departPos="random" departSpeed="0" from="193253433#2" to="28231434"/>
  <flow id="motorcycle_193253433#2_23241821#0_0002d12b" type="motorcycle" begin="0" end="3600" vehsPerHour="95.86" departLane="best" departPos="random" departSpeed="0" from="193253433#2" to="23241821#0"/>
  <flow id="motorcycle_193253433#2_198876042#0_0002d12b" type="motorcycle" begin="0" end="3600" vehsPerHour="78.16" departLane="best" departPos="random" departSpeed="0" from="193253433#2" to="198876042#0"/>
  <flow id="motorcycle_193253433#2_193253427#0_0002d12b" type="motorcycle" begin="0" end="3600" vehsPerHour="68.07" departLane="best" departPos="random" departSpeed="0" from="193253433#2" to="193253427#0"/>
  <flow id="car_198876045#1_28231434_0002d12b" type="car" begin="0" end="3600" vehsPerHour="33.85" departLane="best" departPos="random" departSpeed="0" from="198876045#1" to="28231434"/>
  <flow id="car_198876045#1_23241821#0_0002d12b" type="car" begin="0" end="3600" vehsPerHour="30.92" departLane="best" departPos="random" departSpeed="0" from="198876045#1" to="23241821#0"/>
  <flow id="car_198876045#1_198876042#0_0002d12b" type="car" begin="0" end="3600" vehsPerHour="27.89" departLane="best" departPos="random" departSpeed="0" from="198876045#1" to="198876042#0"/>
  <flow id="car_198876045#1_193253427#0_0002d12b" type="car" begin="0" end="3600" vehsPerHour="23.94" departLane="best" departPos="random" departSpeed="0" from="198876045#1" to="193253427#0"/>
  <flow id="car_198876045#1_198876043#2_0002d12b" type="car" begin="0" end="3600" vehsPerHour="20.64" departLane="best" departPos="random" departSpeed="0" from="198876045#1" to="198876043#2"/>
  <flow id="motorcycle_198876045#1_28231434_0002d12b" type="motorcycle" begin="0" end="3600" vehsPerHour="101.61" departLane="best" departPos="random" departSpeed="0" from="198876045#1" to="28231434"/>
  <flow id="motorcycle_198876045#1_23241821#0_0002d12b" type="motorcycle" begin="0" end="3600" vehsPerHour="86.70" departLane="best" departPos="random" departSpeed="0" from="198876045#1" to="23241821#0"/>
  <flow id="motorcycle_198876045#1_198876042#0_0002d12b" type="motorcycle" begin="0" end="3600" vehsPerHour="81.35" departLane="best" departPos="random" departSpeed="0" from="198876045#1" to="198876042#0"/>
  <flow id="motorcycle_198876045#1_193253427#0_0002d12b" type="motorcycle" begin="0" end="3600" vehsPerHour="70.45" departLane="best" departPos="random" departSpeed="0" from="198876045#1" to="193253427#0"/>
  <flow id="motorcycle_198876045#1_198876043#2_0002d12b" type="motorcycle" begin="0" end="3600" vehsPerHour="66.30" departLane="best" departPos="random" departSpeed="0" from="198876045#1" to="198876043#2"/>
  <flow id="car_-28231434_23241821#0_0002d12b" type="car" begin="0" end="3600" vehsPerHour="23.46" departLane="best" departPos="random" departSpeed="0" from="-28231434" to="23241821#0"/>
  <flow id="car_-28231434_198876042#0_0002d12b" type="car" begin="0" end="3600" vehsPerHour="19.97" departLane="best" departPos="random" departSpeed="0" from="-28231434" to="198876042#0"/>
  <flow id="car_-28231434_193253427#0_0002d12b" type="car" begin="0" end="3600" vehsPerHour="16.12" departLane="best" departPos="random" departSpeed="0" from="-28231434" to="193253427#0"/>
  <flow id="car_-28231434_198876043#2_0002d12b" type="car" begin="0" end="3600" vehsPerHour="16.46" departLane="best" departPos="random" departSpeed="0" from="-28231434" to="198876043#2"/>
  <flow id="car_-28231434_28231434_0002d12b" type="car" begin="0" end="3600" vehsPerHour="13.11" departLane="best" departPos="random" departSpeed="0" from="-28231434" to="28231434"/>
  <flow id="motorcycle_-28231434_23241821#0_0002d12b" type="motorcycle" begin="0" end="3600" vehsPerHour="70.10" departLane="best" departPos="random" departSpeed="0" from="-28231434" to="23241821#0"/>
  <flow id="motorcycle_-28231434_198876042#0_0002d12b" type="motorcycle" begin="0" end="3600" vehsPerHour="61.51" departLane="best" departPos="random" departSpeed="0" from="-28231434" to="198876042#0"/>
  <flow id="motorcycle_-28231434_193253427#0_0002d12b" type="motorcycle" begin="0" end="3600" vehsPerHour="56.37" departLane="best" departPos="random" departSpeed="0" from="-28231434" to="193253427#0"/>
  <flow id="motorcycle_-28231434_198876043#2_0002d12b" type="motorcycle" begin="0" end="3600" vehsPerHour="48.52" departLane="best" departPos="random" departSpeed="0" from="-28231434" to="198876043#2"/>
  <flow id="motorcycle_-28231434_28231434_0002d12b" type="motorcycle" begin="0" end="3600" vehsPerHour="41.63" departLane="best" departPos="random" departSpeed="0" from="-28231434" to="28231434"/>
  <flow id="car_-55029244#0_198876042#0_0002d12b" type="car" begin="0" end="3600" vehsPerHour="27.95" departLane="best" departPos="random" departSpeed="0" from="-55029244#0" to="198876042#0"/>
  <flow id="car_-55029244#0_193253427#0_0002d12b" type="car" begin="0" end="3600" vehsPerHour="23.68" departLane="best" departPos="random" departSpeed="0" from="-55029244#0" to="193253427#0"/>
  <flow id="car_-55029244#0_198876043#2_0002d12b" type="car" begin="0" end="3600" vehsPerHour="20.23" departLane="best" departPos="random" departSpeed="0" from="-55029244#0" to="198876043#2"/>
  <flow id="car_-55029244#0_28231434_0002d12b" type="car" begin="0" end="3600" vehsPerHour="16.11" departLane="best" departPos="random" departSpeed="0" from="-55029244#0" to="28231434"/>
  <flow id="car_-55029244#0_23241821#0_0002d12b" type="car" begin="0" end="3600" vehsPerHour="13.90" departLane="best" departPos="random" departSpeed="0" from="-55029244#0" to="23241821#0"/>
  <flow id="motorcycle_-55029244#0_198876042#0_0002d12b" type="motorcycle" begin="0" end="3600" vehsPerHour="82.69" departLane="best" departPos="random" departSpeed="0" from="-55029244#0" to="198876042#0"/>
  <flow id="motorcycle_-55029244#0_193253427#0_0002d12b" type="motorcycle" begin="0" end="3600" vehsPerHour="64.69" departLane="best" departPos="random" departSpeed="0" from="-55029244#0" to="193253427#0"/>
  <flow id="motorcycle_-55029244#0_198876043#2_0002d12b" type="motorcycle" begin="0" end="3600" vehsPerHour="59.84" departLane="best" departPos="random" departSpeed="0" from="-55029244#0" to="198876043#2"/>
  <flow id="motorcycle_-55029244#0_28231434_0002d12b" type="motorcycle" begin="0" end="3600" vehsPerHour="52.37" departLane="best" departPos="random" departSpeed="0" from="-55029244#0" to="28231434"/>
  <flow id="motorcycle_-55029244#0_23241821#0_0002d12b" type="motorcycle" begin="0" end="3600" vehsPerHour="46.91" departLane="best" departPos="random" departSpeed="0" from="-55029244#0" to="23241821#0"/>
  <flow id="car_34241530#0_198876042#0_0002d12b" type="car" begin="0" end="3600" vehsPerHour="27.39" departLane="best" departPos="random" departSpeed="0" from="34241530#0" to="198876042#0"/>
  <flow id="car_34241530#0_193253427#0_0002d12b" type="car" begin="0" end="3600" vehsPerHour="23.16" departLane="best" departPos="random" departSpeed="0" from="34241530#0" to="193253427#0"/>
  <flow id="car_34241530#0_198876043#2_0002d12b" type="car" begin="0" end="3600" vehsPerHour="21.13" departLane="best" departPos="random" departSpeed="0" from="34241530#0" to="198876043#2"/>
  <flow id="car_34241530#0_28231434_0002d12b" type="car" begin="0" end="3600" vehsPerHour="16.36" departLane="best" departPos="random" departSpeed="0" from="34241530#0" to="28231434"/>
  <flow id="car_34241530#0_23241821#0_0002d12b" type="car" begin="0" end="3600" vehsPerHour="12.89" departLane="best" departPos="random" departSpeed="0" from="34241530#0" to="23241821#0"/>
  <flow id="motorcycle_34241530#0_198876042#0_0002d12b" type="motorcycle" begin="0" end="3600" vehsPerHour="78.58" departLane="best" departPos="random" departSpeed="0" from="34241530#0" to="198876042#0"/>
  <flow id="motorcycle_34241530#0_193253427#0_0002d12b" type="motorcycle" begin="0" end="3600" vehsPerHour="67.28" departLane="best" departPos="random" departSpeed="0" from="34241530#0" to="193253427#0"/>
  <flow id="motorcycle_34241530#0_198876043#2_0002d12b" type="motorcycle" begin="0" end="3600" vehsPerHour="58.85" departLane="best" departPos="random" departSpeed="0" from="34241530#0" to="198876043#2"/>
  <flow id="motorcycle_34241530#0_28231434_0002d12b" type="motorcycle" begin="0" end="3600" vehsPerHour="56.20" departLane="best" departPos="random" departSpeed="0" from="34241530#0" to="28231434"/>
  <flow id="motorcycle_34241530#0_23241821#0_0002d12b" type="motorcycle" begin="0" end="3600" vehsPerHour="45.82" departLane="best" departPos="random" departSpeed="0" from="34241530#0" to="23241821#0"/>
  <flow id="truck_34241530#0_198876042#0_0002d12b" type="truck" begin="0" end="3600" vehsPerHour="12.34" departLane="best" departPos="random" departSpeed="0" from="34241530#0" to="198876042#0"/>
</routes>
