<routes>
<vType id="car" vClass="passenger" accel="2.6" decel="4.5" sigma="0.5" length="5.0" maxSpeed="13.9"/>
<vType id="motorcycle" vClass="motorcycle" accel="3.0" decel="5.0" sigma="0.5" length="2.0" maxSpeed="14.0"/>
<vType id="truck" vClass="truck" accel="1.2" decel="3.5" sigma="0.5" length="12.0" maxSpeed="10.0"/>

  <flow id="car_222682222#1_193253427#0_0007657c" type="car" begin="0" end="3600" vehsPerHour="62.90" departLane="best" departPos="random" departSpeed="0" from="222682222#1" to="193253427#0"/>
  <flow id="car_222682222#1_198876043#0_0007657c" type="car" begin="0" end="3600" vehsPerHour="50.29" departLane="best" departPos="random" departSpeed="0" from="222682222#1" to="198876043#0"/>
  <flow id="car_222682222#1_28231434_0007657c" type="car" begin="0" end="3600" vehsPerHour="51.65" departLane="best" departPos="random" departSpeed="0" from="222682222#1" to="28231434"/>
  <flow id="car_222682222#1_23241821#0_0007657c" type="car" begin="0" end="3600" vehsPerHour="42.38" departLane="best" departPos="random" departSpeed="0" from="222682222#1" to="23241821#0"/>
  <flow id="car_222682222#1_198876042#0_0007657c" type="car" begin="0" end="3600" vehsPerHour="35.14" departLane="best" departPos="random" departSpeed="0" from="222682222#1" to="198876042#0"/>
  <flow id="motorcycle_222682222#1_193253427#0_0007657c" type="motorcycle" begin="0" end="3600" vehsPerHour="175.91" departLane="best" departPos="random" departSpeed="0" from="222682222#1" to="193253427#0"/>
  <flow id="motorcycle_222682222#1_198876043#0_0007657c" type="motorcycle" begin="0" end="3600" vehsPerHour="158.03" departLane="best" departPos="random" departSpeed="0" from="222682222#1" to="198876043#0"/>
  <flow id="motorcycle_222682222#1_28231434_0007657c" type="motorcycle" begin="0" end="3600" vehsPerHour="138.47" departLane="best" departPos="random" departSpeed="0" from="222682222#1" to="28231434"/>
  <flow id="motorcycle_222682222#1_23241821#0_0007657c" type="motorcycle" begin="0" end="3600" vehsPerHour="114.27" departLane="best" departPos="random" departSpeed="0" from="222682222#1" to="23241821#0"/>
  <flow id="motorcycle_222682222#1_198876042#0_0007657c" type="motorcycle" begin="0" end="3600" vehsPerHour="99.66" departLane="best" departPos="random" departSpeed="0" from="222682222#1" to="198876042#0"/>
  <flow id="car_193253433#2_198876043#0_0007657c" type="car" begin="0" end="3600" vehsPerHour="41.50" departLane="best" departPos="random" departSpeed="0" from="193253433#2" to="198876043#0"/>
  <flow id="car_193253433#2_28231434_0007657c" type="car" begin="0" end="3600" vehsPerHour="35.23" departLane="best" departPos="random" departSpeed="0" from="193253433#2" to="28231434"/>
  <flow id="car_193253433#2_23241821#0_0007657c" type="car" begin="0" end="3600" vehsPerHour="34.47" departLane="best" departPos="random" departSpeed="0" from="193253433#2" to="23241821#0"/>
  <flow id="car_193253433#2_198876042#0_0007657c" type="car" begin="0" end="3600" vehsPerHour="26.13" departLane="best" departPos="random" departSpeed="0" from="193253433#2" to="198876042#0"/>
  <flow id="car_193253433#2_193253427#0_0007657c" type="car" begin="0" end="3600" vehsPerHour="23.87" departLane="best" departPos="random" departSpeed="0" from="193253433#2" to="193253427#0"/>
  <flow id="motorcycle_193253433#2_198876043#0_0007657c" type="motorcycle" begin="0" end="3600" vehsPerHour="111.95" departLane="best" departPos="random" departSpeed="0" from="193253433#2" to="198876043#0"/>
  <flow id="motorcycle_193253433#2_28231434_0007657c" type="motorcycle" begin="0" end="3600" vehsPerHour="103.38" departLane="best" departPos="random" departSpeed="0" from="193253433#2" to="28231434"/>
  <flow id="motorcycle_193253433#2_23241821#0_0007657c" type="motorcycle" begin="0" end="3600" vehsPerHour="94.14" departLane="best" departPos="random" departSpeed="0" from="193253433#2" to="23241821#0"/>
  <flow id="motorcycle_193253433#2_198876042#0_0007657c" type="motorcycle" begin="0" end="3600" vehsPerHour="80.17" departLane="best" departPos="random" departSpeed="0" from="193253433#2" to="198876042#0"/>
  <flow id="motorcycle_193253433#2_193253427#0_0007657c" type="motorcycle" begin="0" end="3600" vehsPerHour="69.85" departLane="best" departPos="random" departSpeed="0" from="193253433#2" to="193253427#0"/>
  <flow id="car_198876045#1_28231434_0007657c" type="car" begin="0" end="3600" vehsPerHour="32.55" departLane="best" departPos="random" departSpeed="0" from="198876045#1" to="28231434"/>
  <flow id="car_198876045#1_23241821#0_0007657c" type="car" begin="0" end="3600" vehsPerHour="30.52" departLane="best" departPos="random" departSpeed="0" from="198876045#1" to="23241821#0"/>
  <flow id="car_198876045#1_198876042#0_0007657c" type="car" begin="0" end="3600" vehsPerHour="27.33" departLane="best" departPos="random" departSpeed="0" from="198876045#1" to="198876042#0"/>
  <flow id="car_198876045#1_193253427#0_0007657c" type="car" begin="0" end="3600" vehsPerHour="23.69" departLane="best" departPos="random" departSpeed="0" from="198876045#1" to="193253427#0"/>
  <flow id="car_198876045#1_198876043#2_0007657c" type="car" begin="0" end="3600" vehsPerHour="19.26" departLane="best" departPos="random" departSpeed="0" from="198876045#1" to="198876043#2"/>
  <flow id="motorcycle_198876045#1_28231434_0007657c" type="motorcycle" begin="0" end="3600" vehsPerHour="97.46" departLane="best" departPos="random" departSpeed="0" from="198876045#1" to="28231434"/>
  <flow id="motorcycle_198876045#1_23241821#0_0007657c" type="motorcycle" begin="0" end="3600" vehsPerHour="87.55" departLane="best" departPos="random" departSpeed="0" from="198876045#1" to="23241821#0"/>
  <flow id="motorcycle_198876045#1_198876042#0_0007657c" type="motorcycle" begin="0" end="3600" vehsPerHour="81.69" departLane="best" departPos="random" departSpeed="0" from="198876045#1" to="198876042#0"/>
  <flow id="motorcycle_198876045#1_193253427#0_0007657c" type="motorcycle" begin="0" end="3600" vehsPerHour="70.83" departLane="best" departPos="random" departSpeed="0" from="198876045#1" to="193253427#0"/>
  <flow id="motorcycle_198876045#1_198876043#2_0007657c" type="motorcycle" begin="0" end="3600" vehsPerHour="69.25" departLane="best" departPos="random" departSpeed="0" from="198876045#1" to="198876043#2"/>
  <flow id="car_-28231434_23241821#0_0007657c" type="car" begin="0" end="3600" vehsPerHour="23.84" departLane="best" departPos="random" departSpeed="0" from="-28231434" to="23241821#0"/>
  <flow id="car_-28231434_198876042#0_0007657c" type="car" begin="0" end="3600" vehsPerHour="20.44" departLane="best" departPos="random" departSpeed="0" from="-28231434" to="198876042#0"/>
  <flow id="car_-28231434_193253427#0_0007657c" type="car" begin="0" end="3600" vehsPerHour="16.09" departLane="best" departPos="random" departSpeed="0" from="-28231434" to="193253427#0"/>
  <flow id="car_-28231434_198876043#2_0007657c" type="car" begin="0" end="3600" vehsPerHour="17.28" departLane="best" departPos="random" departSpeed="0" from="-28231434" to="198876043#2"/>
  <flow id="car_-28231434_28231434_0007657c" type="car" begin="0" end="3600" vehsPerHour="13.45" departLane="best" departPos="random" departSpeed="0" from="-28231434" to="28231434"/>
  <flow id="motorcycle_-28231434_23241821#0_0007657c" type="motorcycle" begin="0" end="3600" vehsPerHour="64.60" departLane="best" departPos="random" departSpeed="0" from="-28231434" to="23241821#0"/>
  <flow id="motorcycle_-28231434_198876042#0_0007657c" type="motorcycle" begin="0" end="3600" vehsPerHour="57.76" departLane="best" departPos="random" departSpeed="0" from="-28231434" to="198876042#0"/>
  <flow id="motorcycle_-28231434_193253427#0_0007657c" type="motorcycle" begin="0" end="3600" vehsPerHour="51.57" departLane="best" departPos="random" departSpeed="0" from="-28231434" to="193253427#0"/>
  <flow id="motorcycle_-28231434_198876043#2_0007657c" type="motorcycle" begin="0" end="3600" vehsPerHour="48.63" departLane="best" departPos="random" departSpeed="0" from="-28231434" to="198876043#2"/>
  <flow id="motorcycle_-28231434_28231434_0007657c" type="motorcycle" begin="0" end="3600" vehsPerHour="38.89" departLane="best" departPos="random" departSpeed="0" from="-28231434" to="28231434"/>
  <flow id="car_-55029244#0_198876042#0_0007657c" type="car" begin="0" end="3600" vehsPerHour="26.87" departLane="best" departPos="random" departSpeed="0" from="-55029244#0" to="198876042#0"/>
  <flow id="car_-55029244#0_193253427#0_0007657c" type="car" begin="0" end="3600" vehsPerHour="23.12" departLane="best" departPos="random" departSpeed="0" from="-55029244#0" to="193253427#0"/>
  <flow id="car_-55029244#0_198876043#2_0007657c" type="car" begin="0" end="3600" vehsPerHour="20.75" departLane="best" departPos="random" departSpeed="0" from="-55029244#0" to="198876043#2"/>
  <flow id="car_-55029244#0_28231434_0007657c" type="car" begin="0" end="3600" vehsPerHour="16.35" departLane="best" departPos="random" departSpeed="0" from="-55029244#0" to="28231434"/>
  <flow id="car_-55029244#0_23241821#0_0007657c" type="car" begin="0" end="3600" vehsPerHour="13.95" departLane="best" departPos="random" departSpeed="0" from="-55029244#0" to="23241821#0"/>
  <flow id="motorcycle_-55029244#0_198876042#0_0007657c" type="motorcycle" begin="0" end="3600" vehsPerHour="80.29" departLane="best" departPos="random" departSpeed="0" from="-55029244#0" to="198876042#0"/>
  <flow id="motorcycle_-55029244#0_193253427#0_0007657c" type="motorcycle" begin="0" end="3600" vehsPerHour="69.46" departLane="best" departPos="random" departSpeed="0" from="-55029244#0" to="193253427#0"/>
  <flow id="motorcycle_-55029244#0_198876043#2_0007657c" type="motorcycle" begin="0" end="3600" vehsPerHour="57.84" departLane="best" departPos="random" departSpeed="0" from="-55029244#0" to="198876043#2"/>
  <flow id="motorcycle_-55029244#0_28231434_0007657c" type="motorcycle" begin="0" end="3600" vehsPerHour="52.28" departLane="best" departPos="random" departSpeed="0" from="-55029244#0" to="28231434"/>
  <flow id="motorcycle_-55029244#0_23241821#0_0007657c" type="motorcycle" begin="0" end="3600" vehsPerHour="47.12" departLane="best" departPos="random" departSpeed="0" from="-55029244#0" to="23241821#0"/>
  <flow id="car_34241530#0_198876042#0_0007657c" type="car" begin="0" end="3600" vehsPerHour="26.46" departLane="best" departPos="random" departSpeed="0" from="34241530#0" to="198876042#0"/>
  <flow id="car_34241530#0_193253427#0_0007657c" type="car" begin="0" end="3600" vehsPerHour="23.49" departLane="best" departPos="random" departSpeed="0" from="34241530#0" to="193253427#0"/>
  <flow id="car_34241530#0_198876043#2_0007657c" type="car" begin="0" end="3600" vehsPerHour="20.31" departLane="best" departPos="random" departSpeed="0" from="34241530#0" to="198876043#2"/>
  <flow id="car_34241530#0_28231434_0007657c" type="car" begin="0" end="3600" vehsPerHour="16.74" departLane="best" departPos="random" departSpeed="0" from="34241530#0" to="28231434"/>
  <flow id="car_34241530#0_23241821#0_0007657c" type="car" begin="0" end="3600" vehsPerHour="13.71" departLane="best" departPos="random" departSpeed="0" from="34241530#0" to="23241821#0"/>
  <flow id="motorcycle_34241530#0_198876042#0_0007657c" type="motorcycle" begin="0" end="3600" vehsPerHour="82.29" departLane="best" departPos="random" departSpeed="0" from="34241530#0" to="198876042#0"/>
  <flow id="motorcycle_34241530#0_193253427#0_0007657c" type="motorcycle" begin="0" end="3600" vehsPerHour="65.89" departLane="best" departPos="random" departSpeed="0" from="34241530#0" to="193253427#0"/>
  <flow id="motorcycle_34241530#0_198876043#2_0007657c" type="motorcycle" begin="0" end="3600" vehsPerHour="57.81" departLane="best" departPos="random" departSpeed="0" from="34241530#0" to="198876043#2"/>
  <flow id="motorcycle_34241530#0_28231434_0007657c" type="motorcycle" begin="0" end="3600" vehsPerHour="55.08" departLane="best" departPos="random" departSpeed="0" from="34241530#0" to="28231434"/>
  <flow id="motorcycle_34241530#0_23241821#0_0007657c" type="motorcycle" begin="0" end="3600" vehsPerHour="47.80" departLane="best" departPos="random" departSpeed="0" from="34241530#0" to="23241821#0"/>
  <flow id="truck_34241530#0_198876042#0_0007657c" type="truck" begin="0" end="3600" vehsPerHour="12.03" departLane="best" departPos="random" departSpeed="0" from="34241530#0" to="198876042#0"/>
</routes>
