<routes>
<vType id="car" vClass="passenger" accel="2.6" decel="4.5" sigma="0.5" length="5.0" maxSpeed="13.9"/>
<vType id="motorcycle" vClass="motorcycle" accel="3.0" decel="5.0" sigma="0.5" length="2.0" maxSpeed="14.0"/>
<vType id="truck" vClass="truck" accel="1.2" decel="3.5" sigma="0.5" length="12.0" maxSpeed="10.0"/>

  <flow id="car_222682222#1_193253427#0_00002527" type="car" begin="0" end="3600" vehsPerHour="62.64" departLane="best" departPos="random" departSpeed="0" from="222682222#1" to="193253427#0"/>
  <flow id="car_222682222#1_198876043#0_00002527" type="car" begin="0" end="3600" vehsPerHour="50.64" departLane="best" departPos="random" departSpeed="0" from="222682222#1" to="198876043#0"/>
  <flow id="car_222682222#1_28231434_00002527" type="car" begin="0" end="3600" vehsPerHour="50.20" departLane="best" departPos="random" departSpeed="0" from="222682222#1" to="28231434"/>
  <flow id="car_222682222#1_23241821#0_00002527" type="car" begin="0" end="3600" vehsPerHour="40.41" departLane="best" departPos="random" departSpeed="0" from="222682222#1" to="23241821#0"/>
  <flow id="car_222682222#1_198876042#0_00002527" type="car" begin="0" end="3600" vehsPerHour="32.91" departLane="best" departPos="random" departSpeed="0" from="222682222#1" to="198876042#0"/>
  <flow id="motorcycle_222682222#1_193253427#0_00002527" type="motorcycle" begin="0" end="3600" vehsPerHour="180.39" departLane="best" departPos="random" departSpeed="0" from="222682222#1" to="193253427#0"/>
  <flow id="motorcycle_222682222#1_198876043#0_00002527" type="motorcycle" begin="0" end="3600" vehsPerHour="159.81" departLane="best" departPos="random" departSpeed="0" from="222682222#1" to="198876043#0"/>
  <flow id="motorcycle_222682222#1_28231434_00002527" type="motorcycle" begin="0" end="3600" vehsPerHour="139.66" departLane="best" departPos="random" departSpeed="0" from="222682222#1" to="28231434"/>
  <flow id="motorcycle_222682222#1_23241821#0_00002527" type="motorcycle" begin="0" end="3600" vehsPerHour="112.75" departLane="best" departPos="random" departSpeed="0" from="222682222#1" to="23241821#0"/>
  <flow id="motorcycle_222682222#1_198876042#0_00002527" type="motorcycle" begin="0" end="3600" vehsPerHour="102.20" departLane="best" departPos="random" departSpeed="0" from="222682222#1" to="198876042#0"/>
  <flow id="car_193253433#2_198876043#0_00002527" type="car" begin="0" end="3600" vehsPerHour="39.53" departLane="best" departPos="random" departSpeed="0" from="193253433#2" to="198876043#0"/>
  <flow id="car_193253433#2_28231434_00002527" type="car" begin="0" end="3600" vehsPerHour="32.58" departLane="best" departPos="random" departSpeed="0" from="193253433#2" to="28231434"/>
  <flow id="car_193253433#2_23241821#0_00002527" type="car" begin="0" end="3600" vehsPerHour="34.99" departLane="best" departPos="random" departSpeed="0" from="193253433#2" to="23241821#0"/>
  <flow id="car_193253433#2_198876042#0_00002527" type="car" begin="0" end="3600" vehsPerHour="25.67" departLane="best" departPos="random" departSpeed="0" from="193253433#2" to="198876042#0"/>
  <flow id="car_193253433#2_193253427#0_00002527" type="car" begin="0" end="3600" vehsPerHour="22.49" departLane="best" departPos="random" departSpeed="0" from="193253433#2" to="193253427#0"/>
  <flow id="motorcycle_193253433#2_198876043#0_00002527" type="motorcycle" begin="0" end="3600" vehsPerHour="118.56" departLane="best" departPos="random" departSpeed="0" from="193253433#2" to="198876043#0"/>
  <flow id="motorcycle_193253433#2_28231434_00002527" type="motorcycle" begin="0" end="3600" vehsPerHour="99.65" departLane="best" departPos="random" departSpeed="0" from="193253433#2" to="28231434"/>
  <flow id="motorcycle_193253433#2_23241821#0_00002527" type="motorcycle" begin="0" end="3600" vehsPerHour="98.80" departLane="best" departPos="random" departSpeed="0" from="193253433#2" to="23241821#0"/>
  <flow id="motorcycle_193253433#2_198876042#0_00002527" type="motorcycle" begin="0" end="3600" vehsPerHour="84.91" departLane="best" departPos="random" departSpeed="0" from="193253433#2" to="198876042#0"/>
  <flow id="motorcycle_193253433#2_193253427#0_00002527" type="motorcycle" begin="0" end="3600" vehsPerHour="66.34" departLane="best" departPos="random" departSpeed="0" from="193253433#2" to="193253427#0"/>
  <flow id="car_198876045#1_28231434_00002527" type="car" begin="0" end="3600" vehsPerHour="34.36" departLane="best" departPos="random" departSpeed="0" from="198876045#1" to="28231434"/>
  <flow id="car_198876045#1_23241821#0_00002527" type="car" begin="0" end="3600" vehsPerHour="28.85" departLane="best" departPos="random" departSpeed="0" from="198876045#1" to="23241821#0"/>
  <flow id="car_198876045#1_198876042#0_00002527" type="car" begin="0" end="3600" vehsPerHour="27.42" departLane="best" departPos="random" departSpeed="0" from="198876045#1" to="198876042#0"/>
  <flow id="car_198876045#1_193253427#0_00002527" type="car" begin="0" end="3600" vehsPerHour="24.16" departLane="best" departPos="random" departSpeed="0" from="198876045#1" to="193253427#0"/>
  <flow id="car_198876045#1_198876043#2_00002527" type="car" begin="0" end="3600" vehsPerHour="19.73" departLane="best" departPos="random" departSpeed="0" from="198876045#1" to="198876043#2"/>
  <flow id="motorcycle_198876045#1_28231434_00002527" type="motorcycle" begin="0" end="3600" vehsPerHour="104.32" departLane="best" departPos="random" departSpeed="0" from="198876045#1" to="28231434"/>
  <flow id="motorcycle_198876045#1_23241821#0_00002527" type="motorcycle" begin="0" end="3600" vehsPerHour="86.64" departLane="best" departPos="random" departSpeed="0" from="198876045#1" to="23241821#0"/>
  <flow id="motorcycle_198876045#1_198876042#0_00002527" type="motorcycle" begin="0" end="3600" vehsPerHour="76.85" departLane="best" departPos="random" departSpeed="0" from="198876045#1" to="198876042#0"/>
  <flow id="motorcycle_198876045#1_193253427#0_00002527" type="motorcycle" begin="0" end="3600" vehsPerHour="71.41" departLane="best" departPos="random" departSpeed="0" from="198876045#1" to="193253427#0"/>
  <flow id="motorcycle_198876045#1_198876043#2_00002527" type="motorcycle" begin="0" end="3600" vehsPerHour="68.79" departLane="best" departPos="random" departSpeed="0" from="198876045#1" to="198876043#2"/>
  <flow id="car_-28231434_23241821#0_00002527" type="car" begin="0" end="3600" vehsPerHour="22.84" departLane="best" departPos="random" departSpeed="0" from="-28231434" to="23241821#0"/>
  <flow id="car_-28231434_198876042#0_00002527" type="car" begin="0" end="3600" vehsPerHour="20.73" departLane="best" departPos="random" departSpeed="0" from="-28231434" to="198876042#0"/>
  <flow id="car_-28231434_193253427#0_00002527" type="car" begin="0" end="3600" vehsPerHour="17.68" departLane="best" departPos="random" departSpeed="0" from="-28231434" to="193253427#0"/>
  <flow id="car_-28231434_198876043#2_00002527" type="car" begin="0" end="3600" vehsPerHour="16.49" departLane="best" departPos="random" departSpeed="0" from="-28231434" to="198876043#2"/>
  <flow id="car_-28231434_28231434_00002527" type="car" begin="0" end="3600" vehsPerHour="14.10" departLane="best" departPos="random" departSpeed="0" from="-28231434" to="28231434"/>
  <flow id="motorcycle_-28231434_23241821#0_00002527" type="motorcycle" begin="0" end="3600" vehsPerHour="69.60" departLane="best" departPos="random" departSpeed="0" from="-28231434" to="23241821#0"/>
  <flow id="motorcycle_-28231434_198876042#0_00002527" type="motorcycle" begin="0" end="3600" vehsPerHour="58.41" departLane="best" departPos="random" departSpeed="0" from="-28231434" to="198876042#0"/>
  <flow id="motorcycle_-28231434_193253427#0_00002527" type="motorcycle" begin="0" end="3600" vehsPerHour="51.76" departLane="best" departPos="random" departSpeed="0" from="-28231434" to="193253427#0"/>
  <flow id="motorcycle_-28231434_198876043#2_00002527" type="motorcycle" begin="0" end="3600" vehsPerHour="49.39" departLane="best" departPos="random" departSpeed="0" from="-28231434" to="198876043#2"/>
  <flow id="motorcycle_-28231434_28231434_00002527" type="motorcycle" begin="0" end="3600" vehsPerHour="41.31" departLane="best" departPos="random" departSpeed="0" from="-28231434" to="28231434"/>
  <flow id="car_-55029244#0_198876042#0_00002527" type="car" begin="0" end="3600" vehsPerHour="27.17" departLane="best" departPos="random" departSpeed="0" from="-55029244#0" to="198876042#0"/>
  <flow id="car_-55029244#0_193253427#0_00002527" type="car" begin="0" end="3600" vehsPerHour="23.89" departLane="best" departPos="random" departSpeed="0" from="-55029244#0" to="193253427#0"/>
  <flow id="car_-55029244#0_198876043#2_00002527" type="car" begin="0" end="3600" vehsPerHour="19.38" departLane="best" departPos="random" departSpeed="0" from="-55029244#0" to="198876043#2"/>
  <flow id="car_-55029244#0_28231434_00002527" type="car" begin="0" end="3600" vehsPerHour="17.39" departLane="best" departPos="random" departSpeed="0" from="-55029244#0" to="28231434"/>
  <flow id="car_-55029244#0_23241821#0_00002527" type="car" begin="0" end="3600" vehsPerHour="13.67" departLane="best" departPos="random" departSpeed="0" from="-55029244#0" to="23241821#0"/>
  <flow id="motorcycle_-55029244#0_198876042#0_00002527" type="motorcycle" begin="0" end="3600" vehsPerHour="79.61" departLane="best" departPos="random" departSpeed="0" from="-55029244#0" to="198876042#0"/>
  <flow id="motorcycle_-55029244#0_193253427#0_00002527" type="motorcycle" begin="0" end="3600" vehsPerHour="69.95" departLane="best" departPos="random" departSpeed="0" from="-55029244#0" to="193253427#0"/>
  <flow id="motorcycle_-55029244#0_198876043#2_00002527" type="motorcycle" begin="0" end="3600" vehsPerHour="60.15" departLane="best" departPos="random" departSpeed="0" from="-55029244#0" to="198876043#2"/>
  <flow id="motorcycle_-55029244#0_28231434_00002527" type="motorcycle" begin="0" end="3600" vehsPerHour="53.14" departLane="best" departPos="random" departSpeed="0" from="-55029244#0" to="28231434"/>
  <flow id="motorcycle_-55029244#0_23241821#0_00002527" type="motorcycle" begin="0" end="3600" vehsPerHour="46.94" departLane="best" departPos="random" departSpeed="0" from="-55029244#0" to="23241821#0"/>
  <flow id="car_34241530#0_198876042#0_00002527" type="car" begin="0" end="3600" vehsPerHour="28.15" departLane="best" departPos="random" departSpeed="0" from="34241530#0" to="198876042#0"/>
  <flow id="car_34241530#0_193253427#0_00002527" type="car" begin="0" end="3600" vehsPerHour="24.43" departLane="best" departPos="random" departSpeed="0" from="34241530#0" to="193253427#0"/>
  <flow id="car_34241530#0_198876043#2_00002527" type="car" begin="0" end="3600" vehsPerHour="20.86" departLane="best" departPos="random" departSpeed="0" from="34241530#0" to="198876043#2"/>
  <flow id="car_34241530#0_28231434_00002527" type="car" begin="0" end="3600" vehsPerHour="16.45" departLane="best" departPos="random" departSpeed="0" from="34241530#0" to="28231434"/>
  <flow id="car_34241530#0_23241821#0_00002527" type="car" begin="0" end="3600" vehsPerHour="13.36" departLane="best" departPos="random" departSpeed="0" from="34241530#0" to="23241821#0"/>
  <flow id="motorcycle_34241530#0_198876042#0_00002527" type="motorcycle" begin="0" end="3600" vehsPerHour="77.82" departLane="best" departPos="random" departSpeed="0" from="34241530#0" to="198876042#0"/>
  <flow id="motorcycle_34241530#0_193253427#0_00002527" type="motorcycle" begin="0" end="3600" vehsPerHour="66.64" departLane="best" departPos="random" departSpeed="0" from="34241530#0" to="193253427#0"/>
  <flow id="motorcycle_34241530#0_198876043#2_00002527" type="motorcycle" begin="0" end="3600" vehsPerHour="60.29" departLane="best" departPos="random" departSpeed="0" from="34241530#0" to="198876043#2"/>
  <flow id="motorcycle_34241530#0_28231434_00002527" type="motorcycle" begin="0" end="3600" vehsPerHour="52.48" departLane="best" departPos="random" departSpeed="0" from="34241530#0" to="28231434"/>
  <flow id="motorcycle_34241530#0_23241821#0_00002527" type="motorcycle" begin="0" end="3600" vehsPerHour="48.37" departLane="best" departPos="random" departSpeed="0" from="34241530#0" to="23241821#0"/>
  <flow id="truck_34241530#0_198876042#0_00002527" type="truck" begin="0" end="3600" vehsPerHour="12.02" departLane="best" departPos="random" departSpeed="0" from="34241530#0" to="198876042#0"/>
</routes>
