<routes>
<vType id="car" vClass="passenger" accel="2.6" decel="4.5" sigma="0.5" length="5.0" maxSpeed="13.9"/>
<vType id="motorcycle" vClass="motorcycle" accel="3.0" decel="5.0" sigma="0.5" length="2.0" maxSpeed="14.0"/>
<vType id="truck" vClass="truck" accel="1.2" decel="3.5" sigma="0.5" length="12.0" maxSpeed="10.0"/>

  <flow id="car_222682222#1_193253427#0_0008fd09" type="car" begin="0" end="3600" vehsPerHour="60.23" departLane="best" departPos="random" departSpeed="0" from="222682222#1" to="193253427#0"/>
  <flow id="car_222682222#1_198876043#0_0008fd09" type="car" begin="0" end="3600" vehsPerHour="50.28" departLane="best" departPos="random" departSpeed="0" from="222682222#1" to="198876043#0"/>
  <flow id="car_222682222#1_28231434_0008fd09" type="car" begin="0" end="3600" vehsPerHour="48.82" departLane="best" departPos="random" departSpeed="0" from="222682222#1" to="28231434"/>
  <flow id="car_222682222#1_23241821#0_0008fd09" type="car" begin="0" end="3600" vehsPerHour="40.04" departLane="best" departPos="random" departSpeed="0" from="222682222#1" to="23241821#0"/>
  <flow id="car_222682222#1_198876042#0_0008fd09" type="car" begin="0" end="3600" vehsPerHour="33.68" departLane="best" departPos="random" departSpeed="0" from="222682222#1" to="198876042#0"/>
  <flow id="motorcycle_222682222#1_193253427#0_0008fd09" type="motorcycle" begin="0" end="3600" vehsPerHour="183.04" departLane="best" departPos="random" departSpeed="0" from="222682222#1" to="193253427#0"/>
  <flow id="motorcycle_222682222#1_198876043#0_0008fd09" type="motorcycle" begin="0" end="3600" vehsPerHour="153.27" departLane="best" departPos="random" departSpeed="0" from="222682222#1" to="198876043#0"/>
  <flow id="motorcycle_222682222#1_28231434_0008fd09" type="motorcycle" begin="0" end="3600" vehsPerHour="145.94" departLane="best" departPos="random" departSpeed="0" from="222682222#1" to="28231434"/>
  <flow id="motorcycle_222682222#1_23241821#0_0008fd09" type="motorcycle" begin="0" end="3600" vehsPerHour="113.07" departLane="best" departPos="random" departSpeed="0" from="222682222#1" to="23241821#0"/>
  <flow id="motorcycle_222682222#1_198876042#0_0008fd09" type="motorcycle" begin="0" end="3600" vehsPerHour="104.70" departLane="best" departPos="random" departSpeed="0" from="222682222#1" to="198876042#0"/>
  <flow id="car_193253433#2_198876043#0_0008fd09" type="car" begin="0" end="3600" vehsPerHour="41.37" departLane="best" departPos="random" departSpeed="0" from="193253433#2" to="198876043#0"/>
  <flow id="car_193253433#2_28231434_0008fd09" type="car" begin="0" end="3600" vehsPerHour="34.72" departLane="best" departPos="random" departSpeed="0" from="193253433#2" to="28231434"/>
  <flow id="car_193253433#2_23241821#0_0008fd09" type="car" begin="0" end="3600" vehsPerHour="32.73" departLane="best" departPos="random" departSpeed="0" from="193253433#2" to="23241821#0"/>
  <flow id="car_193253433#2_198876042#0_0008fd09" type="car" begin="0" end="3600" vehsPerHour="26.32" departLane="best" departPos="random" departSpeed="0" from="193253433#2" to="198876042#0"/>
  <flow id="car_193253433#2_193253427#0_0008fd09" type="car" begin="0" end="3600" vehsPerHour="23.81" departLane="best" departPos="random" departSpeed="0" from="193253433#2" to="193253427#0"/>
  <flow id="motorcycle_193253433#2_198876043#0_0008fd09" type="motorcycle" begin="0" end="3600" vehsPerHour="111.17" departLane="best" departPos="random" departSpeed="0" from="193253433#2" to="198876043#0"/>
  <flow id="motorcycle_193253433#2_28231434_0008fd09" type="motorcycle" begin="0" end="3600" vehsPerHour="97.64" departLane="best" departPos="random" departSpeed="0" from="193253433#2" to="28231434"/>
  <flow id="motorcycle_193253433#2_23241821#0_0008fd09" type="motorcycle" begin="0" end="3600" vehsPerHour="93.03" departLane="best" departPos="random" departSpeed="0" from="193253433#2" to="23241821#0"/>
  <flow id="motorcycle_193253433#2_198876042#0_0008fd09" type="motorcycle" begin="0" end="3600" vehsPerHour="81.70" departLane="best" departPos="random" departSpeed="0" from="193253433#2" to="198876042#0"/>
  <flow id="motorcycle_193253433#2_193253427#0_0008fd09" type="motorcycle" begin="0" end="3600" vehsPerHour="69.52" departLane="best" departPos="random" departSpeed="0" from="193253433#2" to="193253427#0"/>
  <flow id="car_198876045#1_28231434_0008fd09" type="car" begin="0" end="3600" vehsPerHour="32.39" departLane="best" departPos="random" departSpeed="0" from="198876045#1" to="28231434"/>
  <flow id="car_198876045#1_23241821#0_0008fd09" type="car" begin="0" end="3600" vehsPerHour="31.14" departLane="best" departPos="random" departSpeed="0" from="198876045#1" to="23241821#0"/>
  <flow id="car_198876045#1_198876042#0_0008fd09" type="car" begin="0" end="3600" vehsPerHour="25.83" departLane="best" departPos="random" departSpeed="0" from="198876045#1" to="198876042#0"/>
  <flow id="car_198876045#1_193253427#0_0008fd09" type="car" begin="0" end="3600" vehsPerHour="23.27" departLane="best" departPos="random" departSpeed="0" from="198876045#1" to="193253427#0"/>
  <flow id="car_198876045#1_198876043#2_0008fd09" type="car" begin="0" end="3600" vehsPerHour="19.78" departLane="best" departPos="random" departSpeed="0" from="198876045#1" to="198876043#2"/>
  <flow id="motorcycle_198876045#1_28231434_0008fd09" type="motorcycle" begin="0" end="3600" vehsPerHour="100.15" departLane="best" departPos="random" departSpeed="0" from="198876045#1" to="28231434"/>
  <flow id="motorcycle_198876045#1_23241821#0_0008fd09" type="motorcycle" begin="0" end="3600" vehsPerHour="87.60" departLane="best" departPos="random" departSpeed="0" from="198876045#1" to="23241821#0"/>
  <flow id="motorcycle_198876045#1_198876042#0_0008fd09" type="motorcycle" begin="0" end="3600" vehsPerHour="80.63" departLane="best" departPos="random" departSpeed="0" from="198876045#1" to="198876042#0"/>
  <flow id="motorcycle_198876045#1_193253427#0_0008fd09" type="motorcycle" begin="0" end="3600" vehsPerHour="72.68" departLane="best" departPos="random" departSpeed="0" from="198876045#1" to="193253427#0"/>
  <flow id="motorcycle_198876045#1_198876043#2_0008fd09" type="motorcycle" begin="0" end="3600" vehsPerHour="64.23" departLane="best" departPos="random" departSpeed="0" from="198876045#1" to="198876043#2"/>
  <flow id="car_-28231434_23241821#0_0008fd09" type="car" begin="0" end="3600" vehsPerHour="22.83" departLane="best" departPos="random" departSpeed="0" from="-28231434" to="23241821#0"/>
  <flow id="car_-28231434_198876042#0_0008fd09" type="car" begin="0" end="3600" vehsPerHour="19.48" departLane="best" departPos="random" departSpeed="0" from="-28231434" to="198876042#0"/>
  <flow id="car_-28231434_193253427#0_0008fd09" type="car" begin="0" end="3600" vehsPerHour="16.75" departLane="best" departPos="random" departSpeed="0" from="-28231434" to="193253427#0"/>
  <flow id="car_-28231434_198876043#2_0008fd09" type="car" begin="0" end="3600" vehsPerHour="17.63" departLane="best" departPos="random" departSpeed="0" from="-28231434" to="198876043#2"/>
  <flow id="car_-28231434_28231434_0008fd09" type="car" begin="0" end="3600" vehsPerHour="13.19" departLane="best" departPos="random" departSpeed="0" from="-28231434" to="28231434"/>
  <flow id="motorcycle_-28231434_23241821#0_0008fd09" type="motorcycle" begin="0" end="3600" vehsPerHour="67.05" departLane="best" departPos="random" departSpeed="0" from="-28231434" to="23241821#0"/>
  <flow id="motorcycle_-28231434_198876042#0_0008fd09" type="motorcycle" begin="0" end="3600" vehsPerHour="63.54" departLane="best" departPos="random" departSpeed="0" from="-28231434" to="198876042#0"/>
  <flow id="motorcycle_-28231434_193253427#0_0008fd09" type="motorcycle" begin="0" end="3600" vehsPerHour="55.69" departLane="best" departPos="random" departSpeed="0" from="-28231434" to="193253427#0"/>
  <flow id="motorcycle_-28231434_198876043#2_0008fd09" type="motorcycle" begin="0" end="3600" vehsPerHour="49.47" departLane="best" departPos="random" departSpeed="0" from="-28231434" to="198876043#2"/>
  <flow id="motorcycle_-28231434_28231434_0008fd09" type="motorcycle" begin="0" end="3600" vehsPerHour="39.38" departLane="best" departPos="random" departSpeed="0" from="-28231434" to="28231434"/>
  <flow id="car_-55029244#0_198876042#0_0008fd09" type="car" begin="0" end="3600" vehsPerHour="27.72" departLane="best" departPos="random" departSpeed="0" from="-55029244#0" to="198876042#0"/>
  <flow id="car_-55029244#0_193253427#0_0008fd09" type="car" begin="0" end="3600" vehsPerHour="24.28" departLane="best" departPos="random" departSpeed="0" from="-55029244#0" to="193253427#0"/>
  <flow id="car_-55029244#0_198876043#2_0008fd09" type="car" begin="0" end="3600" vehsPerHour="20.28" departLane="best" departPos="random" departSpeed="0" from="-55029244#0" to="198876043#2"/>
  <flow id="car_-55029244#0_28231434_0008fd09" type="car" begin="0" end="3600" vehsPerHour="16.20" departLane="best" departPos="random" departSpeed="0" from="-55029244#0" to="28231434"/>
  <flow id="car_-55029244#0_23241821#0_0008fd09" type="car" begin="0" end="3600" vehsPerHour="13.57" departLane="best" departPos="random" departSpeed="0" from="-55029244#0" to="23241821#0"/>
  <flow id="motorcycle_-55029244#0_198876042#0_0008fd09" type="motorcycle" begin="0" end="3600" vehsPerHour="83.21" departLane="best" departPos="random" departSpeed="0" from="-55029244#0" to="198876042#0"/>
  <flow id="motorcycle_-55029244#0_193253427#0_0008fd09" type="motorcycle" begin="0" end="3600" vehsPerHour="65.28" departLane="best" departPos="random" departSpeed="0" from="-55029244#0" to="193253427#0"/>
  <flow id="motorcycle_-55029244#0_198876043#2_0008fd09" type="motorcycle" begin="0" end="3600" vehsPerHour="59.39" departLane="best" departPos="random" departSpeed="0" from="-55029244#0" to="198876043#2"/>
  <flow id="motorcycle_-55029244#0_28231434_0008fd09" type="motorcycle" begin="0" end="3600" vehsPerHour="53.58" departLane="best" departPos="random" departSpeed="0" from="-55029244#0" to="28231434"/>
  <flow id="motorcycle_-55029244#0_23241821#0_0008fd09" type="motorcycle" begin="0" end="3600" vehsPerHour="47.16" departLane="best" departPos="random" departSpeed="0" from="-55029244#0" to="23241821#0"/>
  <flow id="car_34241530#0_198876042#0_0008fd09" type="car" begin="0" end="3600" vehsPerHour="25.68" departLane="best" departPos="random" departSpeed="0" from="34241530#0" to="198876042#0"/>
  <flow id="car_34241530#0_193253427#0_0008fd09" type="car" begin="0" end="3600" vehsPerHour="24.66" departLane="best" departPos="random" departSpeed="0" from="34241530#0" to="193253427#0"/>
  <flow id="car_34241530#0_198876043#2_0008fd09" type="car" begin="0" end="3600" vehsPerHour="19.44" departLane="best" departPos="random" departSpeed="0" from="34241530#0" to="198876043#2"/>
  <flow id="car_34241530#0_28231434_0008fd09" type="car" begin="0" end="3600" vehsPerHour="16.44" departLane="best" departPos="random" departSpeed="0" from="34241530#0" to="28231434"/>
  <flow id="car_34241530#0_23241821#0_0008fd09" type="car" begin="0" end="3600" vehsPerHour="13.59" departLane="best" departPos="random" departSpeed="0" from="34241530#0" to="23241821#0"/>
  <flow id="motorcycle_34241530#0_198876042#0_0008fd09" type="motorcycle" begin="0" end="3600" vehsPerHour="77.12" departLane="best" departPos="random" departSpeed="0" from="34241530#0" to="198876042#0"/>
  <flow id="motorcycle_34241530#0_193253427#0_0008fd09" type="motorcycle" begin="0" end="3600" vehsPerHour="69.93" departLane="best" departPos="random" departSpeed="0" from="34241530#0" to="193253427#0"/>
  <flow id="motorcycle_34241530#0_198876043#2_0008fd09" type="motorcycle" begin="0" end="3600" vehsPerHour="58.74" departLane="best" departPos="random" departSpeed="0" from="34241530#0" to="198876043#2"/>
  <flow id="motorcycle_34241530#0_28231434_0008fd09" type="motorcycle" begin="0" end="3600" vehsPerHour="52.69" departLane="best" departPos="random" departSpeed="0" from="34241530#0" to="28231434"/>
  <flow id="motorcycle_34241530#0_23241821#0_0008fd09" type="motorcycle" begin="0" end="3600" vehsPerHour="49.30" departLane="best" departPos="random" departSpeed="0" from="34241530#0" to="23241821#0"/>
  <flow id="truck_34241530#0_198876042#0_0008fd09" type="truck" begin="0" end="3600" vehsPerHour="12.34" departLane="best" departPos="random" departSpeed="0" from="34241530#0" to="198876042#0"/>
</routes>
