<routes>
<vType id="car" vClass="passenger" accel="2.6" decel="4.5" sigma="0.5" length="5.0" maxSpeed="13.9"/>
<vType id="motorcycle" vClass="motorcycle" accel="3.0" decel="5.0" sigma="0.5" length="2.0" maxSpeed="14.0"/>
<vType id="truck" vClass="truck" accel="1.2" decel="3.5" sigma="0.5" length="12.0" maxSpeed="10.0"/>

  <flow id="car_222682222#1_193253427#0_00045076" type="car" begin="0" end="3600" vehsPerHour="58.18" departLane="best" departPos="random" departSpeed="0" from="222682222#1" to="193253427#0"/>
  <flow id="car_222682222#1_198876043#0_00045076" type="car" begin="0" end="3600" vehsPerHour="50.55" departLane="best" departPos="random" departSpeed="0" from="222682222#1" to="198876043#0"/>
  <flow id="car_222682222#1_28231434_00045076" type="car" begin="0" end="3600" vehsPerHour="49.37" departLane="best" departPos="random" departSpeed="0" from="222682222#1" to="28231434"/>
  <flow id="car_222682222#1_23241821#0_00045076" type="car" begin="0" end="3600" vehsPerHour="40.62" departLane="best" departPos="random" departSpeed="0" from="222682222#1" to="23241821#0"/>
  <flow id="car_222682222#1_198876042#0_00045076" type="car" begin="0" end="3600" vehsPerHour="33.72" departLane="best" departPos="random" departSpeed="0" from="222682222#1" to="198876042#0"/>
  <flow id="motorcycle_222682222#1_193253427#0_00045076" type="motorcycle" begin="0" end="3600" vehsPerHour="183.10" departLane="best" departPos="random" departSpeed="0" from="222682222#1" to="193253427#0"/>
  <flow id="motorcycle_222682222#1_198876043#0_00045076" type="motorcycle" begin="0" end="3600" vehsPerHour="150.34" departLane="best" departPos="random" departSpeed="0" from="222682222#1" to="198876043#0"/>
  <flow id="motorcycle_222682222#1_28231434_00045076" type="motorcycle" begin="0" end="3600" vehsPerHour="135.05" departLane="best" departPos="random" departSpeed="0" from="222682222#1" to="28231434"/>
  <flow id="motorcycle_222682222#1_23241821#0_00045076" type="motorcycle" begin="0" end="3600" vehsPerHour="119.92" departLane="best" departPos="random" departSpeed="0" from="222682222#1" to="23241821#0"/>
  <flow id="motorcycle_222682222#1_198876042#0_00045076" type="motorcycle" begin="0" end="3600" vehsPerHour="98.52" departLane="best" departPos="random" departSpeed="0" from="222682222#1" to="198876042#0"/>
  <flow id="car_193253433#2_198876043#0_00045076" type="car" begin="0" end="3600" vehsPerHour="38.74" departLane="best" departPos="random" departSpeed="0" from="193253433#2" to="198876043#0"/>
  <flow id="car_193253433#2_28231434_00045076" type="car" begin="0" end="3600" vehsPerHour="33.76" departLane="best" departPos="random" departSpeed="0" from="193253433#2" to="28231434"/>
  <flow id="car_193253433#2_23241821#0_00045076" type="car" begin="0" end="3600" vehsPerHour="33.16" departLane="best" departPos="random" departSpeed="0" from="193253433#2" to="23241821#0"/>
  <flow id="car_193253433#2_198876042#0_00045076" type="car" begin="0" end="3600" vehsPerHour="27.49" departLane="best" departPos="random" departSpeed="0" from="193253433#2" to="198876042#0"/>
  <flow id="car_193253433#2_193253427#0_00045076" type="car" begin="0" end="3600" vehsPerHour="23.27" departLane="best" departPos="random" departSpeed="0" from="193253433#2" to="193253427#0"/>
  <flow id="motorcycle_193253433#2_198876043#0_00045076" type="motorcycle" begin="0" end="3600" vehsPerHour="114.67" departLane="best" departPos="random" departSpeed="0" from="193253433#2" to="198876043#0"/>
  <flow id="motorcycle_193253433#2_28231434_00045076" type="motorcycle" begin="0" end="3600" vehsPerHour="98.24" departLane="best" departPos="random" departSpeed="0" from="193253433#2" to="28231434"/>
  <flow id="motorcycle_193253433#2_23241821#0_00045076" type="motorcycle" begin="0" end="3600" vehsPerHour="90.24" departLane="best" departPos="random" departSpeed="0" from="193253433#2" to="23241821#0"/>
  <flow id="motorcycle_193253433#2_198876042#0_00045076" type="motorcycle" begin="0" end="3600" vehsPerHour="80.62" departLane="best" departPos="random" departSpeed="0" from="193253433#2" to="198876042#0"/>
  <flow id="motorcycle_193253433#2_193253427#0_00045076" type="motorcycle" begin="0" end="3600" vehsPerHour="65.31" departLane="best" departPos="random" departSpeed="0" from="193253433#2" to="193253427#0"/>
  <flow id="car_198876045#1_28231434_00045076" type="car" begin="0" end="3600" vehsPerHour="32.79" departLane="best" departPos="random" departSpeed="0" from="198876045#1" to="28231434"/>
  <flow id="car_198876045#1_23241821#0_00045076" type="car" begin="0" end="3600" vehsPerHour="30.45" departLane="best" departPos="random" departSpeed="0" from="198876045#1" to="23241821#0"/>
  <flow id="car_198876045#1_198876042#0_00045076" type="car" begin="0" end="3600" vehsPerHour="26.24" departLane="best" departPos="random" departSpeed="0" from="198876045#1" to="198876042#0"/>
  <flow id="car_198876045#1_193253427#0_00045076" type="car" begin="0" end="3600" vehsPerHour="23.49" departLane="best" departPos="random" departSpeed="0" from="198876045#1" to="193253427#0"/>
  <flow id="car_198876045#1_198876043#2_00045076" type="car" begin="0" end="3600" vehsPerHour="20.84" departLane="best" departPos="random" departSpeed="0" from="198876045#1" to="198876043#2"/>
  <flow id="motorcycle_198876045#1_28231434_00045076" type="motorcycle" begin="0" end="3600" vehsPerHour="96.04" departLane="best" departPos="random" departSpeed="0" from="198876045#1" to="28231434"/>
  <flow id="motorcycle_198876045#1_23241821#0_00045076" type="motorcycle" begin="0" end="3600" vehsPerHour="90.54" departLane="best" departPos="random" departSpeed="0" from="198876045#1" to="23241821#0"/>
  <flow id="motorcycle_198876045#1_198876042#0_00045076" type="motorcycle" begin="0" end="3600" vehsPerHour="79.35" departLane="best" departPos="random" departSpeed="0" from="198876045#1" to="198876042#0"/>
  <flow id="motorcycle_198876045#1_193253427#0_00045076" type="motorcycle" begin="0" end="3600" vehsPerHour="70.44" departLane="best" departPos="random" departSpeed="0" from="198876045#1" to="193253427#0"/>
  <flow id="motorcycle_198876045#1_198876043#2_00045076" type="motorcycle" begin="0" end="3600" vehsPerHour="65.21" departLane="best" departPos="random" departSpeed="0" from="198876045#1" to="198876043#2"/>
  <flow id="car_-28231434_23241821#0_00045076" type="car" begin="0" end="3600" vehsPerHour="23.12" departLane="best" departPos="random" departSpeed="0" from="-28231434" to="23241821#0"/>
  <flow id="car_-28231434_198876042#0_00045076" type="car" begin="0" end="3600" vehsPerHour="20.80" departLane="best" departPos="random" departSpeed="0" from="-28231434" to="198876042#0"/>
  <flow id="car_-28231434_193253427#0_00045076" type="car" begin="0" end="3600" vehsPerHour="16.38" departLane="best" departPos="random" departSpeed="0" from="-28231434" to="193253427#0"/>
  <flow id="car_-28231434_198876043#2_00045076" type="car" begin="0" end="3600" vehsPerHour="16.48" departLane="best" departPos="random" departSpeed="0" from="-28231434" to="198876043#2"/>
  <flow id="car_-28231434_28231434_00045076" type="car" begin="0" end="3600" vehsPerHour="12.97" departLane="best" departPos="random" departSpeed="0" from="-28231434" to="28231434"/>
  <flow id="motorcycle_-28231434_23241821#0_00045076" type="motorcycle" begin="0" end="3600" vehsPerHour="69.53" departLane="best" departPos="random" departSpeed="0" from="-28231434" to="23241821#0"/>
  <flow id="motorcycle_-28231434_198876042#0_00045076" type="motorcycle" begin="0" end="3600" vehsPerHour="58.77" departLane="best" departPos="random" departSpeed="0" from="-28231434" to="198876042#0"/>
  <flow id="motorcycle_-28231434_193253427#0_00045076" type="motorcycle" begin="0" end="3600" vehsPerHour="51.78" departLane="best" departPos="random" departSpeed="0" from="-28231434" to="193253427#0"/>
  <flow id="motorcycle_-28231434_198876043#2_00045076" type="motorcycle" begin="0" end="3600" vehsPerHour="47.83" departLane="best" departPos="random" departSpeed="0" from="-28231434" to="198876043#2"/>
  <flow id="motorcycle_-28231434_28231434_00045076" type="motorcycle" begin="0" end="3600" vehsPerHour="38.63" departLane="best" departPos="random" departSpeed="0" from="-28231434" to="28231434"/>
  <flow id="car_-55029244#0_198876042#0_00045076" type="car" begin="0" end="3600" vehsPerHour="26.03" departLane="best" departPos="random" departSpeed="0" from="-55029244#0" to="198876042#0"/>
  <flow id="car_-55029244#0_193253427#0_00045076" type="car" begin="0" end="3600" vehsPerHour="22.56" departLane="best" departPos="random" departSpeed="0" from="-55029244#0" to="193253427#0"/>
  <flow id="car_-55029244#0_198876043#2_00045076" type="car" begin="0" end="3600" vehsPerHour="19.52" departLane="best" departPos="random" departSpeed="0" from="-55029244#0" to="198876043#2"/>
  <flow id="car_-55029244#0_28231434_00045076" type="car" begin="0" end="3600" vehsPerHour="17.24" departLane="best" departPos="random" departSpeed="0" from="-55029244#0" to="28231434"/>
  <flow id="car_-55029244#0_23241821#0_00045076" type="car" begin="0" end="3600" vehsPerHour="13.26" departLane="best" departPos="random" departSpeed="0" from="-55029244#0" to="23241821#0"/>
  <flow id="motorcycle_-55029244#0_198876042#0_00045076" type="motorcycle" begin="0" end="3600" vehsPerHour="77.37" departLane="best" departPos="random" departSpeed="0" from="-55029244#0" to="198876042#0"/>
  <flow id="motorcycle_-55029244#0_193253427#0_00045076" type="motorcycle" begin="0" end="3600" vehsPerHour="68.49" departLane="best" departPos="random" departSpeed="0" from="-55029244#0" to="193253427#0"/>
  <flow id="motorcycle_-55029244#0_198876043#2_00045076" type="motorcycle" begin="0" end="3600" vehsPerHour="60.50" departLane="best" departPos="random" departSpeed="0" from="-55029244#0" to="198876043#2"/>
  <flow id="motorcycle_-55029244#0_28231434_00045076" type="motorcycle" begin="0" end="3600" vehsPerHour="54.80" departLane="best" departPos="random" departSpeed="0" from="-55029244#0" to="28231434"/>
  <flow id="motorcycle_-55029244#0_23241821#0_00045076" type="motorcycle" begin="0" end="3600" vehsPerHour="47.91" departLane="best" departPos="random" departSpeed="0" from="-55029244#0" to="23241821#0"/>
  <flow id="car_34241530#0_198876042#0_00045076" type="car" begin="0" end="3600" vehsPerHour="27.17" departLane="best" departPos="random" departSpeed="0" from="34241530#0" to="198876042#0"/>
  <flow id="car_34241530#0_193253427#0_00045076" type="car" begin="0" end="3600" vehsPerHour="24.27" departLane="best" departPos="random" departSpeed="0" from="34241530#0" to="193253427#0"/>
  <flow id="car_34241530#0_198876043#2_00045076" type="car" begin="0" end="3600" vehsPerHour="19.31" departLane="best" departPos="random" departSpeed="0" from="34241530#0" to="198876043#2"/>
  <flow id="car_34241530#0_28231434_00045076" type="car" begin="0" end="3600" vehsPerHour="17.22" departLane="best" departPos="random" departSpeed="0" from="34241530#0" to="28231434"/>
  <flow id="car_34241530#0_23241821#0_00045076" type="car" begin="0" end="3600" vehsPerHour="13.95" departLane="best" departPos="random" departSpeed="0" from="34241530#0" to="23241821#0"/>
  <flow id="motorcycle_34241530#0_198876042#0_00045076" type="motorcycle" begin="0" end="3600" vehsPerHour="84.63" departLane="best" departPos="random" departSpeed="0" from="34241530#0" to="198876042#0"/>
  <flow id="motorcycle_34241530#0_193253427#0_00045076" type="motorcycle" begin="0" end="3600" vehsPerHour="70.40" departLane="best" departPos="random" departSpeed="0" from="34241530#0" to="193253427#0"/>
  <flow id="motorcycle_34241530#0_198876043#2_00045076" type="motorcycle" begin="0" end="3600" vehsPerHour="59.36" departLane="best" departPos="random" departSpeed="0" from="34241530#0" to="198876043#2"/>
  <flow id="motorcycle_34241530#0_28231434_00045076" type="motorcycle" begin="0" end="3600" vehsPerHour="55.64" departLane="best" departPos="random" departSpeed="0" from="34241530#0" to="28231434"/>
  <flow id="motorcycle_34241530#0_23241821#0_00045076" type="motorcycle" begin="0" end="3600" vehsPerHour="44.84" departLane="best" departPos="random" departSpeed="0" from="34241530#0" to="23241821#0"/>
  <flow id="truck_34241530#0_198876042#0_00045076" type="truck" begin="0" end="3600" vehsPerHour="11.37" departLane="best" departPos="random" departSpeed="0" from="34241530#0" to="198876042#0"/>
</routes>
