<routes>
<vType id="car" vClass="passenger" accel="2.6" decel="4.5" sigma="0.5" length="5.0" maxSpeed="13.9"/>
<vType id="motorcycle" vClass="motorcycle" accel="3.0" decel="5.0" sigma="0.5" length="2.0" maxSpeed="14.0"/>
<vType id="truck" vClass="truck" accel="1.2" decel="3.5" sigma="0.5" length="12.0" maxSpeed="10.0"/>

  <flow id="car_222682222#1_193253427#0_00081d77" type="car" begin="0" end="3600" vehsPerHour="62.80" departLane="best" departPos="random" departSpeed="0" from="222682222#1" to="193253427#0"/>
  <flow id="car_222682222#1_198876043#0_00081d77" type="car" begin="0" end="3600" vehsPerHour="48.75" departLane="best" departPos="random" departSpeed="0" from="222682222#1" to="198876043#0"/>
  <flow id="car_222682222#1_28231434_00081d77" type="car" begin="0" end="3600" vehsPerHour="50.65" departLane="best" departPos="random" departSpeed="0" from="222682222#1" to="28231434"/>
  <flow id="car_222682222#1_23241821#0_00081d77" type="car" begin="0" end="3600" vehsPerHour="40.44" departLane="best" departPos="random" departSpeed="0" from="222682222#1" to="23241821#0"/>
  <flow id="car_222682222#1_198876042#0_00081d77" type="car" begin="0" end="3600" vehsPerHour="32.72" departLane="best" departPos="random" departSpeed="0" from="222682222#1" to="198876042#0"/>
  <flow id="motorcycle_222682222#1_193253427#0_00081d77" type="motorcycle" begin="0" end="3600" vehsPerHour="178.78" departLane="best" departPos="random" departSpeed="0" from="222682222#1" to="193253427#0"/>
  <flow id="motorcycle_222682222#1_198876043#0_00081d77" type="motorcycle" begin="0" end="3600" vehsPerHour="147.79" departLane="best" departPos="random" departSpeed="0" from="222682222#1" to="198876043#0"/>
  <flow id="motorcycle_222682222#1_28231434_00081d77" type="motorcycle" begin="0" end="3600" vehsPerHour="138.33" departLane="best" departPos="random" departSpeed="0" from="222682222#1" to="28231434"/>
  <flow id="motorcycle_222682222#1_23241821#0_00081d77" type="motorcycle" begin="0" end="3600" vehsPerHour="113.12" departLane="best" departPos="random" departSpeed="0" from="222682222#1" to="23241821#0"/>
  <flow id="motorcycle_222682222#1_198876042#0_00081d77" type="motorcycle" begin="0" end="3600" vehsPerHour="102.68" departLane="best" departPos="random" departSpeed="0" from="222682222#1" to="198876042#0"/>
  <flow id="car_193253433#2_198876043#0_00081d77" type="car" begin="0" end="3600" vehsPerHour="41.42" departLane="best" departPos="random" departSpeed="0" from="193253433#2" to="198876043#0"/>
  <flow id="car_193253433#2_28231434_00081d77" type="car" begin="0" end="3600" vehsPerHour="34.80" departLane="best" departPos="random" departSpeed="0" from="193253433#2" to="28231434"/>
  <flow id="car_193253433#2_23241821#0_00081d77" type="car" begin="0" end="3600" vehsPerHour="33.59" departLane="best" departPos="random" departSpeed="0" from="193253433#2" to="23241821#0"/>
  <flow id="car_193253433#2_198876042#0_00081d77" type="car" begin="0" end="3600" vehsPerHour="25.72" departLane="best" departPos="random" departSpeed="0" from="193253433#2" to="198876042#0"/>
  <flow id="car_193253433#2_193253427#0_00081d77" type="car" begin="0" end="3600" vehsPerHour="22.64" departLane="best" departPos="random" departSpeed="0" from="193253433#2" to="193253427#0"/>
  <flow id="motorcycle_193253433#2_198876043#0_00081d77" type="motorcycle" begin="0" end="3600" vehsPerHour="116.02" departLane="best" departPos="random" departSpeed="0" from="193253433#2" to="198876043#0"/>
  <flow id="motorcycle_193253433#2_28231434_00081d77" type="motorcycle" begin="0" end="3600" vehsPerHour="103.32" departLane="best" departPos="random" departSpeed="0" from="193253433#2" to="28231434"/>
  <flow id="motorcycle_193253433#2_23241821#0_00081d77" type="motorcycle" begin="0" end="3600" vehsPerHour="91.58" departLane="best" departPos="random" departSpeed="0" from="193253433#2" to="23241821#0"/>
  <flow id="motorcycle_193253433#2_198876042#0_00081d77" type="motorcycle" begin="0" end="3600" vehsPerHour="84.54" departLane="best" departPos="random" departSpeed="0" from="193253433#2" to="198876042#0"/>
  <flow id="motorcycle_193253433#2_193253427#0_00081d77" type="motorcycle" begin="0" end="3600" vehsPerHour="70.52" departLane="best" departPos="random" departSpeed="0" from="193253433#2" to="193253427#0"/>
  <flow id="car_198876045#1_28231434_00081d77" type="car" begin="0" end="3600" vehsPerHour="32.81" departLane="best" departPos="random" departSpeed="0" from="198876045#1" to="28231434"/>
  <flow id="car_198876045#1_23241821#0_00081d77" type="car" begin="0" end="3600" vehsPerHour="30.21" departLane="best" departPos="random" departSpeed="0" from="198876045#1" to="23241821#0"/>
  <flow id="car_198876045#1_198876042#0_00081d77" type="car" begin="0" end="3600" vehsPerHour="27.46" departLane="best" departPos="random" departSpeed="0" from="198876045#1" to="198876042#0"/>
  <flow id="car_198876045#1_193253427#0_00081d77" type="car" begin="0" end="3600" vehsPerHour="24.31" departLane="best" departPos="random" departSpeed="0" from="198876045#1" to="193253427#0"/>
  <flow id="car_198876045#1_198876043#2_00081d77" type="car" begin="0" end="3600" vehsPerHour="19.68" departLane="best" departPos="random" departSpeed="0" from="198876045#1" to="198876043#2"/>
  <flow id="motorcycle_198876045#1_28231434_00081d77" type="motorcycle" begin="0" end="3600" vehsPerHour="97.25" departLane="best" departPos="random" departSpeed="0" from="198876045#1" to="28231434"/>
  <flow id="motorcycle_198876045#1_23241821#0_00081d77" type="motorcycle" begin="0" end="3600" vehsPerHour="87.63" departLane="best" departPos="random" departSpeed="0" from="198876045#1" to="23241821#0"/>
  <flow id="motorcycle_198876045#1_198876042#0_00081d77" type="motorcycle" begin="0" end="3600" vehsPerHour="82.82" departLane="best" departPos="random" departSpeed="0" from="198876045#1" to="198876042#0"/>
  <flow id="motorcycle_198876045#1_193253427#0_00081d77" type="motorcycle" begin="0" end="3600" vehsPerHour="75.58" departLane="best" departPos="random" departSpeed="0" from="198876045#1" to="193253427#0"/>
  <flow id="motorcycle_198876045#1_198876043#2_00081d77" type="motorcycle" begin="0" end="3600" vehsPerHour="70.76" departLane="best" departPos="random" departSpeed="0" from="198876045#1" to="198876043#2"/>
  <flow id="car_-28231434_23241821#0_00081d77" type="car" begin="0" end="3600" vehsPerHour="23.31" departLane="best" departPos="random" departSpeed="0" from="-28231434" to="23241821#0"/>
  <flow id="car_-28231434_198876042#0_00081d77" type="car" begin="0" end="3600" vehsPerHour="20.05" departLane="best" departPos="random" departSpeed="0" from="-28231434" to="198876042#0"/>
  <flow id="car_-28231434_193253427#0_00081d77" type="car" begin="0" end="3600" vehsPerHour="17.52" departLane="best" departPos="random" departSpeed="0" from="-28231434" to="193253427#0"/>
  <flow id="car_-28231434_198876043#2_00081d77" type="car" begin="0" end="3600" vehsPerHour="16.78" departLane="best" departPos="random" departSpeed="0" from="-28231434" to="198876043#2"/>
  <flow id="car_-28231434_28231434_00081d77" type="car" begin="0" end="3600" vehsPerHour="14.04" departLane="best" departPos="random" departSpeed="0" from="-28231434" to="28231434"/>
  <flow id="motorcycle_-28231434_23241821#0_00081d77" type="motorcycle" begin="0" end="3600" vehsPerHour="68.45" departLane="best" departPos="random" departSpeed="0" from="-28231434" to="23241821#0"/>
  <flow id="motorcycle_-28231434_198876042#0_00081d77" type="motorcycle" begin="0" end="3600" vehsPerHour="60.73" departLane="best" departPos="random" departSpeed="0" from="-28231434" to="198876042#0"/>
  <flow id="motorcycle_-28231434_193253427#0_00081d77" type="motorcycle" begin="0" end="3600" vehsPerHour="51.31" departLane="best" departPos="random" departSpeed="0" from="-28231434" to="193253427#0"/>
  <flow id="motorcycle_-28231434_198876043#2_00081d77" type="motorcycle" begin="0" end="3600" vehsPerHour="45.68" departLane="best" departPos="random" departSpeed="0" from="-28231434" to="198876043#2"/>
  <flow id="motorcycle_-28231434_28231434_00081d77" type="motorcycle" begin="0" end="3600" vehsPerHour="38.82" departLane="best" departPos="random" departSpeed="0" from="-28231434" to="28231434"/>
  <flow id="car_-55029244#0_198876042#0_00081d77" type="car" begin="0" end="3600" vehsPerHour="26.01" departLane="best" departPos="random" departSpeed="0" from="-55029244#0" to="198876042#0"/>
  <flow id="car_-55029244#0_193253427#0_00081d77" type="car" begin="0" end="3600" vehsPerHour="22.64" departLane="best" departPos="random" departSpeed="0" from="-55029244#0" to="193253427#0"/>
  <flow id="car_-55029244#0_198876043#2_00081d77" type="car" begin="0" end="3600" vehsPerHour="20.26" departLane="best" departPos="random" departSpeed="0" from="-55029244#0" to="198876043#2"/>
  <flow id="car_-55029244#0_28231434_00081d77" type="car" begin="0" end="3600" vehsPerHour="17.39" departLane="best" departPos="random" departSpeed="0" from="-55029244#0" to="28231434"/>
  <flow id="car_-55029244#0_23241821#0_00081d77" type="car" begin="0" end="3600" vehsPerHour="13.79" departLane="best" departPos="random" departSpeed="0" from="-55029244#0" to="23241821#0"/>
  <flow id="motorcycle_-55029244#0_198876042#0_00081d77" type="motorcycle" begin="0" end="3600" vehsPerHour="76.95" departLane="best" departPos="random" departSpeed="0" from="-55029244#0" to="198876042#0"/>
  <flow id="motorcycle_-55029244#0_193253427#0_00081d77" type="motorcycle" begin="0" end="3600" vehsPerHour="69.89" departLane="best" departPos="random" departSpeed="0" from="-55029244#0" to="193253427#0"/>
  <flow id="motorcycle_-55029244#0_198876043#2_00081d77" type="motorcycle" begin="0" end="3600" vehsPerHour="62.69" departLane="best" departPos="random" departSpeed="0" from="-55029244#0" to="198876043#2"/>
  <flow id="motorcycle_-55029244#0_28231434_00081d77" type="motorcycle" begin="0" end="3600" vehsPerHour="52.91" departLane="best" departPos="random" departSpeed="0" from="-55029244#0" to="28231434"/>
  <flow id="motorcycle_-55029244#0_23241821#0_00081d77" type="motorcycle" begin="0" end="3600" vehsPerHour="48.33" departLane="best" departPos="random" departSpeed="0" from="-55029244#0" to="23241821#0"/>
  <flow id="car_34241530#0_198876042#0_00081d77" type="car" begin="0" end="3600" vehsPerHour="26.99" departLane="best" departPos="random" departSpeed="0" from="34241530#0" to="198876042#0"/>
  <flow id="car_34241530#0_193253427#0_00081d77" type="car" begin="0" end="3600" vehsPerHour="23.66" departLane="best" departPos="random" departSpeed="0" from="34241530#0" to="193253427#0"/>
  <flow id="car_34241530#0_198876043#2_00081d77" type="car" begin="0" end="3600" vehsPerHour="20.63" departLane="best" departPos="random" departSpeed="0" from="34241530#0" to="198876043#2"/>
  <flow id="car_34241530#0_28231434_00081d77" type="car" begin="0" end="3600" vehsPerHour="16.25" departLane="best" departPos="random" departSpeed="0" from="34241530#0" to="28231434"/>
  <flow id="car_34241530#0_23241821#0_00081d77" type="car" begin="0" end="3600" vehsPerHour="13.45" departLane="best" departPos="random" departSpeed="0" from="34241530#0" to="23241821#0"/>
  <flow id="motorcycle_34241530#0_198876042#0_00081d77" type="motorcycle" begin="0" end="3600" vehsPerHour="78.17" departLane="best" departPos="random" departSpeed="0" from="34241530#0" to="198876042#0"/>
  <flow id="motorcycle_34241530#0_193253427#0_00081d77" type="motorcycle" begin="0" end="3600" vehsPerHour="68.22" departLane="best" departPos="random" departSpeed="0" from="34241530#0" to="193253427#0"/>
  <flow id="motorcycle_34241530#0_198876043#2_00081d77" type="motorcycle" begin="0" end="3600" vehsPerHour="62.32" departLane="best" departPos="random" departSpeed="0" from="34241530#0" to="198876043#2"/>
  <flow id="motorcycle_34241530#0_28231434_00081d77" type="motorcycle" begin="0" end="3600" vehsPerHour="54.50" departLane="best" departPos="random" departSpeed="0" from="34241530#0" to="28231434"/>
  <flow id="motorcycle_34241530#0_23241821#0_00081d77" type="motorcycle" begin="0" end="3600" vehsPerHour="47.47" departLane="best" departPos="random" departSpeed="0" from="34241530#0" to="23241821#0"/>
  <flow id="truck_34241530#0_198876042#0_00081d77" type="truck" begin="0" end="3600" vehsPerHour="11.88" departLane="best" departPos="random" departSpeed="0" from="34241530#0" to="198876042#0"/>
</routes>
