<routes>
<vType id="car" vClass="passenger" accel="2.6" decel="4.5" sigma="0.5" length="5.0" maxSpeed="13.9"/>
<vType id="motorcycle" vClass="motorcycle" accel="3.0" decel="5.0" sigma="0.5" length="2.0" maxSpeed="14.0"/>
<vType id="truck" vClass="truck" accel="1.2" decel="3.5" sigma="0.5" length="12.0" maxSpeed="10.0"/>

  <flow id="car_222682222#1_193253427#0_00084005" type="car" begin="0" end="3600" vehsPerHour="62.60" departLane="best" departPos="random" departSpeed="0" from="222682222#1" to="193253427#0"/>
  <flow id="car_222682222#1_198876043#0_00084005" type="car" begin="0" end="3600" vehsPerHour="48.33" departLane="best" departPos="random" departSpeed="0" from="222682222#1" to="198876043#0"/>
  <flow id="car_222682222#1_28231434_00084005" type="car" begin="0" end="3600" vehsPerHour="53.01" departLane="best" departPos="random" departSpeed="0" from="222682222#1" to="28231434"/>
  <flow id="car_222682222#1_23241821#0_00084005" type="car" begin="0" end="3600" vehsPerHour="41.12" departLane="best" departPos="random" departSpeed="0" from="222682222#1" to="23241821#0"/>
  <flow id="car_222682222#1_198876042#0_00084005" type="car" begin="0" end="3600" vehsPerHour="35.37" departLane="best" departPos="random" departSpeed="0" from="222682222#1" to="198876042#0"/>
  <flow id="motorcycle_222682222#1_193253427#0_00084005" type="motorcycle" begin="0" end="3600" vehsPerHour="182.45" departLane="best" departPos="random" departSpeed="0" from="222682222#1" to="193253427#0"/>
  <flow id="motorcycle_222682222#1_198876043#0_00084005" type="motorcycle" begin="0" end="3600" vehsPerHour="152.93" departLane="best" departPos="random" departSpeed="0" from="222682222#1" to="198876043#0"/>
  <flow id="motorcycle_222682222#1_28231434_00084005" type="motorcycle" begin="0" end="3600" vehsPerHour="141.33" departLane="best" departPos="random" departSpeed="0" from="222682222#1" to="28231434"/>
  <flow id="motorcycle_222682222#1_23241821#0_00084005" type="motorcycle" begin="0" end="3600" vehsPerHour="116.09" departLane="best" departPos="random" departSpeed="0" from="222682222#1" to="23241821#0"/>
  <flow id="motorcycle_222682222#1_198876042#0_00084005" type="motorcycle" begin="0" end="3600" vehsPerHour="97.59" departLane="best" departPos="random" departSpeed="0" from="222682222#1" to="198876042#0"/>
  <flow id="car_193253433#2_198876043#0_00084005" type="car" begin="0" end="3600" vehsPerHour="41.97" departLane="best" departPos="random" departSpeed="0" from="193253433#2" to="198876043#0"/>
  <flow id="car_193253433#2_28231434_00084005" type="car" begin="0" end="3600" vehsPerHour="35.09" departLane="best" departPos="random" departSpeed="0" from="193253433#2" to="28231434"/>
  <flow id="car_193253433#2_23241821#0_00084005" type="car" begin="0" end="3600" vehsPerHour="32.04" departLane="best" departPos="random" departSpeed="0" from="193253433#2" to="23241821#0"/>
  <flow id="car_193253433#2_198876042#0_00084005" type="car" begin="0" end="3600" vehsPerHour="27.41" departLane="best" departPos="random" departSpeed="0" from="193253433#2" to="198876042#0"/>
  <flow id="car_193253433#2_193253427#0_00084005" type="car" begin="0" end="3600" vehsPerHour="22.72" departLane="best" departPos="random" departSpeed="0" from="193253433#2" to="193253427#0"/>
  <flow id="motorcycle_193253433#2_198876043#0_00084005" type="motorcycle" begin="0" end="3600" vehsPerHour="117.83" departLane="best" departPos="random" departSpeed="0" from="193253433#2" to="198876043#0"/>
  <flow id="motorcycle_193253433#2_28231434_00084005" type="motorcycle" begin="0" end="3600" vehsPerHour="98.97" departLane="best" departPos="random" departSpeed="0" from="193253433#2" to="28231434"/>
  <flow id="motorcycle_193253433#2_23241821#0_00084005" type="motorcycle" begin="0" end="3600" vehsPerHour="92.68" departLane="best" departPos="random" departSpeed="0" from="193253433#2" to="23241821#0"/>
  <flow id="motorcycle_193253433#2_198876042#0_00084005" type="motorcycle" begin="0" end="3600" vehsPerHour="83.02" departLane="best" departPos="random" departSpeed="0" from="193253433#2" to="198876042#0"/>
  <flow id="motorcycle_193253433#2_193253427#0_00084005" type="motorcycle" begin="0" end="3600" vehsPerHour="66.44" departLane="best" departPos="random" departSpeed="0" from="193253433#2" to="193253427#0"/>
  <flow id="car_198876045#1_28231434_00084005" type="car" begin="0" end="3600" vehsPerHour="33.75" departLane="best" departPos="random" departSpeed="0" from="198876045#1" to="28231434"/>
  <flow id="car_198876045#1_23241821#0_00084005" type="car" begin="0" end="3600" vehsPerHour="31.58" departLane="best" departPos="random" departSpeed="0" from="198876045#1" to="23241821#0"/>
  <flow id="car_198876045#1_198876042#0_00084005" type="car" begin="0" end="3600" vehsPerHour="26.78" departLane="best" departPos="random" departSpeed="0" from="198876045#1" to="198876042#0"/>
  <flow id="car_198876045#1_193253427#0_00084005" type="car" begin="0" end="3600" vehsPerHour="24.27" departLane="best" departPos="random" departSpeed="0" from="198876045#1" to="193253427#0"/>
  <flow id="car_198876045#1_198876043#2_00084005" type="car" begin="0" end="3600" vehsPerHour="19.22" departLane="best" departPos="random" departSpeed="0" from="198876045#1" to="198876043#2"/>
  <flow id="motorcycle_198876045#1_28231434_00084005" type="motorcycle" begin="0" end="3600" vehsPerHour="98.97" departLane="best" departPos="random" departSpeed="0" from="198876045#1" to="28231434"/>
  <flow id="motorcycle_198876045#1_23241821#0_00084005" type="motorcycle" begin="0" end="3600" vehsPerHour="89.40" departLane="best" departPos="random" departSpeed="0" from="198876045#1" to="23241821#0"/>
  <flow id="motorcycle_198876045#1_198876042#0_00084005" type="motorcycle" begin="0" end="3600" vehsPerHour="82.67" departLane="best" departPos="random" departSpeed="0" from="198876045#1" to="198876042#0"/>
  <flow id="motorcycle_198876045#1_193253427#0_00084005" type="motorcycle" begin="0" end="3600" vehsPerHour="76.06" departLane="best" departPos="random" departSpeed="0" from="198876045#1" to="193253427#0"/>
  <flow id="motorcycle_198876045#1_198876043#2_00084005" type="motorcycle" begin="0" end="3600" vehsPerHour="64.91" departLane="best" departPos="random" departSpeed="0" from="198876045#1" to="198876043#2"/>
  <flow id="car_-28231434_23241821#0_00084005" type="car" begin="0" end="3600" vehsPerHour="24.26" departLane="best" departPos="random" departSpeed="0" from="-28231434" to="23241821#0"/>
  <flow id="car_-28231434_198876042#0_00084005" type="car" begin="0" end="3600" vehsPerHour="21.20" departLane="best" departPos="random" departSpeed="0" from="-28231434" to="198876042#0"/>
  <flow id="car_-28231434_193253427#0_00084005" type="car" begin="0" end="3600" vehsPerHour="17.21" departLane="best" departPos="random" departSpeed="0" from="-28231434" to="193253427#0"/>
  <flow id="car_-28231434_198876043#2_00084005" type="car" begin="0" end="3600" vehsPerHour="17.36" departLane="best" departPos="random" departSpeed="0" from="-28231434" to="198876043#2"/>
  <flow id="car_-28231434_28231434_00084005" type="car" begin="0" end="3600" vehsPerHour="13.13" departLane="best" departPos="random" departSpeed="0" from="-28231434" to="28231434"/>
  <flow id="motorcycle_-28231434_23241821#0_00084005" type="motorcycle" begin="0" end="3600" vehsPerHour="70.73" departLane="best" departPos="random" departSpeed="0" from="-28231434" to="23241821#0"/>
  <flow id="motorcycle_-28231434_198876042#0_00084005" type="motorcycle" begin="0" end="3600" vehsPerHour="61.92" departLane="best" departPos="random" departSpeed="0" from="-28231434" to="198876042#0"/>
  <flow id="motorcycle_-28231434_193253427#0_00084005" type="motorcycle" begin="0" end="3600" vehsPerHour="51.46" departLane="best" departPos="random" departSpeed="0" from="-28231434" to="193253427#0"/>
  <flow id="motorcycle_-28231434_198876043#2_00084005" type="motorcycle" begin="0" end="3600" vehsPerHour="47.65" departLane="best" departPos="random" departSpeed="0" from="-28231434" to="198876043#2"/>
  <flow id="motorcycle_-28231434_28231434_00084005" type="motorcycle" begin="0" end="3600" vehsPerHour="41.96" departLane="best" departPos="random" departSpeed="0" from="-28231434" to="28231434"/>
  <flow id="car_-55029244#0_198876042#0_00084005" type="car" begin="0" end="3600" vehsPerHour="25.61" departLane="best" departPos="random" departSpeed="0" from="-55029244#0" to="198876042#0"/>
  <flow id="car_-55029244#0_193253427#0_00084005" type="car" begin="0" end="3600" vehsPerHour="22.99" departLane="best" departPos="random" departSpeed="0" from="-55029244#0" to="193253427#0"/>
  <flow id="car_-55029244#0_198876043#2_00084005" type="car" begin="0" end="3600" vehsPerHour="20.38" departLane="best" departPos="random" departSpeed="0" from="-55029244#0" to="198876043#2"/>
  <flow id="car_-55029244#0_28231434_00084005" type="car" begin="0" end="3600" vehsPerHour="16.08" departLane="best" departPos="random" departSpeed="0" from="-55029244#0" to="28231434"/>
  <flow id="car_-55029244#0_23241821#0_00084005" type="car" begin="0" end="3600" vehsPerHour="13.68" departLane="best" departPos="random" departSpeed="0" from="-55029244#0" to="23241821#0"/>
  <flow id="motorcycle_-55029244#0_198876042#0_00084005" type="motorcycle" begin="0" end="3600" vehsPerHour="79.53" departLane="best" departPos="random" departSpeed="0" from="-55029244#0" to="198876042#0"/>
  <flow id="motorcycle_-55029244#0_193253427#0_00084005" type="motorcycle" begin="0" end="3600" vehsPerHour="68.65" departLane="best" departPos="random" departSpeed="0" from="-55029244#0" to="193253427#0"/>
  <flow id="motorcycle_-55029244#0_198876043#2_00084005" type="motorcycle" begin="0" end="3600" vehsPerHour="62.44" departLane="best" departPos="random" departSpeed="0" from="-55029244#0" to="198876043#2"/>
  <flow id="motorcycle_-55029244#0_28231434_00084005" type="motorcycle" begin="0" end="3600" vehsPerHour="56.47" departLane="best" departPos="random" departSpeed="0" from="-55029244#0" to="28231434"/>
  <flow id="motorcycle_-55029244#0_23241821#0_00084005" type="motorcycle" begin="0" end="3600" vehsPerHour="48.57" departLane="best" departPos="random" departSpeed="0" from="-55029244#0" to="23241821#0"/>
  <flow id="car_34241530#0_198876042#0_00084005" type="car" begin="0" end="3600" vehsPerHour="26.29" departLane="best" departPos="random" departSpeed="0" from="34241530#0" to="198876042#0"/>
  <flow id="car_34241530#0_193253427#0_00084005" type="car" begin="0" end="3600" vehsPerHour="22.52" departLane="best" departPos="random" departSpeed="0" from="34241530#0" to="193253427#0"/>
  <flow id="car_34241530#0_198876043#2_00084005" type="car" begin="0" end="3600" vehsPerHour="19.21" departLane="best" departPos="random" departSpeed="0" from="34241530#0" to="198876043#2"/>
  <flow id="car_34241530#0_28231434_00084005" type="car" begin="0" end="3600" vehsPerHour="16.36" departLane="best" departPos="random" departSpeed="0" from="34241530#0" to="28231434"/>
  <flow id="car_34241530#0_23241821#0_00084005" type="car" begin="0" end="3600" vehsPerHour="12.91" departLane="best" departPos="random" departSpeed="0" from="34241530#0" to="23241821#0"/>
  <flow id="motorcycle_34241530#0_198876042#0_00084005" type="motorcycle" begin="0" end="3600" vehsPerHour="82.67" departLane="best" departPos="random" departSpeed="0" from="34241530#0" to="198876042#0"/>
  <flow id="motorcycle_34241530#0_193253427#0_00084005" type="motorcycle" begin="0" end="3600" vehsPerHour="66.37" departLane="best" departPos="random" departSpeed="0" from="34241530#0" to="193253427#0"/>
  <flow id="motorcycle_34241530#0_198876043#2_00084005" type="motorcycle" begin="0" end="3600" vehsPerHour="57.76" departLane="best" departPos="random" departSpeed="0" from="34241530#0" to="198876043#2"/>
  <flow id="motorcycle_34241530#0_28231434_00084005" type="motorcycle" begin="0" end="3600" vehsPerHour="54.80" departLane="best" departPos="random" departSpeed="0" from="34241530#0" to="28231434"/>
  <flow id="motorcycle_34241530#0_23241821#0_00084005" type="motorcycle" begin="0" end="3600" vehsPerHour="48.18" departLane="best" departPos="random" departSpeed="0" from="34241530#0" to="23241821#0"/>
  <flow id="truck_34241530#0_198876042#0_00084005" type="truck" begin="0" end="3600" vehsPerHour="11.80" departLane="best" departPos="random" departSpeed="0" from="34241530#0" to="198876042#0"/>
</routes>
