<routes>
<vType id="car" vClass="passenger" accel="2.6" decel="4.5" sigma="0.5" length="5.0" maxSpeed="13.9"/>
<vType id="motorcycle" vClass="motorcycle" accel="3.0" decel="5.0" sigma="0.5" length="2.0" maxSpeed="14.0"/>
<vType id="truck" vClass="truck" accel="1.2" decel="3.5" sigma="0.5" length="12.0" maxSpeed="10.0"/>

  <flow id="car_222682222#1_193253427#0_00043e24" type="car" begin="0" end="3600" vehsPerHour="58.80" departLane="best" departPos="random" departSpeed="0" from="222682222#1" to="193253427#0"/>
  <flow id="car_222682222#1_198876043#0_00043e24" type="car" begin="0" end="3600" vehsPerHour="51.30" departLane="best" departPos="random" departSpeed="0" from="222682222#1" to="198876043#0"/>
  <flow id="car_222682222#1_28231434_00043e24" type="car" begin="0" end="3600" vehsPerHour="48.42" departLane="best" departPos="random" departSpeed="0" from="222682222#1" to="28231434"/>
  <flow id="car_222682222#1_23241821#0_00043e24" type="car" begin="0" end="3600" vehsPerHour="41.21" departLane="best" departPos="random" departSpeed="0" from="222682222#1" to="23241821#0"/>
  <flow id="car_222682222#1_198876042#0_00043e24" type="car" begin="0" end="3600" vehsPerHour="32.64" departLane="best" departPos="random" departSpeed="0" from="222682222#1" to="198876042#0"/>
  <flow id="motorcycle_222682222#1_193253427#0_00043e24" type="motorcycle" begin="0" end="3600" vehsPerHour="179.99" departLane="best" departPos="random" departSpeed="0" from="222682222#1" to="193253427#0"/>
  <flow id="motorcycle_222682222#1_198876043#0_00043e24" type="motorcycle" begin="0" end="3600" vehsPerHour="153.28" departLane="best" departPos="random" departSpeed="0" from="222682222#1" to="198876043#0"/>
  <flow id="motorcycle_222682222#1_28231434_00043e24" type="motorcycle" begin="0" end="3600" vehsPerHour="140.13" departLane="best" departPos="random" departSpeed="0" from="222682222#1" to="28231434"/>
  <flow id="motorcycle_222682222#1_23241821#0_00043e24" type="motorcycle" begin="0" end="3600" vehsPerHour="109.19" departLane="best" departPos="random" departSpeed="0" from="222682222#1" to="23241821#0"/>
  <flow id="motorcycle_222682222#1_198876042#0_00043e24" type="motorcycle" begin="0" end="3600" vehsPerHour="98.33" departLane="best" departPos="random" departSpeed="0" from="222682222#1" to="198876042#0"/>
  <flow id="car_193253433#2_198876043#0_00043e24" type="car" begin="0" end="3600" vehsPerHour="39.04" departLane="best" departPos="random" departSpeed="0" from="193253433#2" to="198876043#0"/>
  <flow id="car_193253433#2_28231434_00043e24" type="car" begin="0" end="3600" vehsPerHour="35.05" departLane="best" departPos="random" departSpeed="0" from="193253433#2" to="28231434"/>
  <flow id="car_193253433#2_23241821#0_00043e24" type="car" begin="0" end="3600" vehsPerHour="34.91" departLane="best" departPos="random" departSpeed="0" from="193253433#2" to="23241821#0"/>
  <flow id="car_193253433#2_198876042#0_00043e24" type="car" begin="0" end="3600" vehsPerHour="27.46" departLane="best" departPos="random" departSpeed="0" from="193253433#2" to="198876042#0"/>
  <flow id="car_193253433#2_193253427#0_00043e24" type="car" begin="0" end="3600" vehsPerHour="24.61" departLane="best" departPos="random" departSpeed="0" from="193253433#2" to="193253427#0"/>
  <flow id="motorcycle_193253433#2_198876043#0_00043e24" type="motorcycle" begin="0" end="3600" vehsPerHour="108.89" departLane="best" departPos="random" departSpeed="0" from="193253433#2" to="198876043#0"/>
  <flow id="motorcycle_193253433#2_28231434_00043e24" type="motorcycle" begin="0" end="3600" vehsPerHour="98.87" departLane="best" departPos="random" departSpeed="0" from="193253433#2" to="28231434"/>
  <flow id="motorcycle_193253433#2_23241821#0_00043e24" type="motorcycle" begin="0" end="3600" vehsPerHour="91.85" departLane="best" departPos="random" departSpeed="0" from="193253433#2" to="23241821#0"/>
  <flow id="motorcycle_193253433#2_198876042#0_00043e24" type="motorcycle" begin="0" end="3600" vehsPerHour="79.51" departLane="best" departPos="random" departSpeed="0" from="193253433#2" to="198876042#0"/>
  <flow id="motorcycle_193253433#2_193253427#0_00043e24" type="motorcycle" begin="0" end="3600" vehsPerHour="65.85" departLane="best" departPos="random" departSpeed="0" from="193253433#2" to="193253427#0"/>
  <flow id="car_198876045#1_28231434_00043e24" type="car" begin="0" end="3600" vehsPerHour="33.35" departLane="best" departPos="random" departSpeed="0" from="198876045#1" to="28231434"/>
  <flow id="car_198876045#1_23241821#0_00043e24" type="car" begin="0" end="3600" vehsPerHour="29.15" departLane="best" departPos="random" departSpeed="0" from="198876045#1" to="23241821#0"/>
  <flow id="car_198876045#1_198876042#0_00043e24" type="car" begin="0" end="3600" vehsPerHour="26.92" departLane="best" departPos="random" departSpeed="0" from="198876045#1" to="198876042#0"/>
  <flow id="car_198876045#1_193253427#0_00043e24" type="car" begin="0" end="3600" vehsPerHour="24.14" departLane="best" departPos="random" departSpeed="0" from="198876045#1" to="193253427#0"/>
  <flow id="car_198876045#1_198876043#2_00043e24" type="car" begin="0" end="3600" vehsPerHour="20.60" departLane="best" departPos="random" departSpeed="0" from="198876045#1" to="198876043#2"/>
  <flow id="motorcycle_198876045#1_28231434_00043e24" type="motorcycle" begin="0" end="3600" vehsPerHour="102.10" departLane="best" departPos="random" departSpeed="0" from="198876045#1" to="28231434"/>
  <flow id="motorcycle_198876045#1_23241821#0_00043e24" type="motorcycle" begin="0" end="3600" vehsPerHour="87.64" departLane="best" departPos="random" departSpeed="0" from="198876045#1" to="23241821#0"/>
  <flow id="motorcycle_198876045#1_198876042#0_00043e24" type="motorcycle" begin="0" end="3600" vehsPerHour="80.73" departLane="best" departPos="random" departSpeed="0" from="198876045#1" to="198876042#0"/>
  <flow id="motorcycle_198876045#1_193253427#0_00043e24" type="motorcycle" begin="0" end="3600" vehsPerHour="72.24" departLane="best" departPos="random" departSpeed="0" from="198876045#1" to="193253427#0"/>
  <flow id="motorcycle_198876045#1_198876043#2_00043e24" type="motorcycle" begin="0" end="3600" vehsPerHour="69.75" departLane="best" departPos="random" departSpeed="0" from="198876045#1" to="198876043#2"/>
  <flow id="car_-28231434_23241821#0_00043e24" type="car" begin="0" end="3600" vehsPerHour="22.71" departLane="best" departPos="random" departSpeed="0" from="-28231434" to="23241821#0"/>
  <flow id="car_-28231434_198876042#0_00043e24" type="car" begin="0" end="3600" vehsPerHour="20.89" departLane="best" departPos="random" departSpeed="0" from="-28231434" to="198876042#0"/>
  <flow id="car_-28231434_193253427#0_00043e24" type="car" begin="0" end="3600" vehsPerHour="16.22" departLane="best" departPos="random" departSpeed="0" from="-28231434" to="193253427#0"/>
  <flow id="car_-28231434_198876043#2_00043e24" type="car" begin="0" end="3600" vehsPerHour="16.81" departLane="best" departPos="random" departSpeed="0" from="-28231434" to="198876043#2"/>
  <flow id="car_-28231434_28231434_00043e24" type="car" begin="0" end="3600" vehsPerHour="13.91" departLane="best" departPos="random" departSpeed="0" from="-28231434" to="28231434"/>
  <flow id="motorcycle_-28231434_23241821#0_00043e24" type="motorcycle" begin="0" end="3600" vehsPerHour="67.67" departLane="best" departPos="random" departSpeed="0" from="-28231434" to="23241821#0"/>
  <flow id="motorcycle_-28231434_198876042#0_00043e24" type="motorcycle" begin="0" end="3600" vehsPerHour="59.62" departLane="best" departPos="random" departSpeed="0" from="-28231434" to="198876042#0"/>
  <flow id="motorcycle_-28231434_193253427#0_00043e24" type="motorcycle" begin="0" end="3600" vehsPerHour="52.00" departLane="best" departPos="random" departSpeed="0" from="-28231434" to="193253427#0"/>
  <flow id="motorcycle_-28231434_198876043#2_00043e24" type="motorcycle" begin="0" end="3600" vehsPerHour="47.02" departLane="best" departPos="random" departSpeed="0" from="-28231434" to="198876043#2"/>
  <flow id="motorcycle_-28231434_28231434_00043e24" type="motorcycle" begin="0" end="3600" vehsPerHour="39.96" departLane="best" departPos="random" departSpeed="0" from="-28231434" to="28231434"/>
  <flow id="car_-55029244#0_198876042#0_00043e24" type="car" begin="0" end="3600" vehsPerHour="27.64" departLane="best" departPos="random" departSpeed="0" from="-55029244#0" to="198876042#0"/>
  <flow id="car_-55029244#0_193253427#0_00043e24" type="car" begin="0" end="3600" vehsPerHour="22.66" departLane="best" departPos="random" departSpeed="0" from="-55029244#0" to="193253427#0"/>
  <flow id="car_-55029244#0_198876043#2_00043e24" type="car" begin="0" end="3600" vehsPerHour="20.89" departLane="best" departPos="random" departSpeed="0" from="-55029244#0" to="198876043#2"/>
  <flow id="car_-55029244#0_28231434_00043e24" type="car" begin="0" end="3600" vehsPerHour="16.92" departLane="best" departPos="random" departSpeed="0" from="-55029244#0" to="28231434"/>
  <flow id="car_-55029244#0_23241821#0_00043e24" type="car" begin="0" end="3600" vehsPerHour="13.06" departLane="best" departPos="random" departSpeed="0" from="-55029244#0" to="23241821#0"/>
  <flow id="motorcycle_-55029244#0_198876042#0_00043e24" type="motorcycle" begin="0" end="3600" vehsPerHour="84.02" departLane="best" departPos="random" departSpeed="0" from="-55029244#0" to="198876042#0"/>
  <flow id="motorcycle_-55029244#0_193253427#0_00043e24" type="motorcycle" begin="0" end="3600" vehsPerHour="65.19" departLane="best" departPos="random" departSpeed="0" from="-55029244#0" to="193253427#0"/>
  <flow id="motorcycle_-55029244#0_198876043#2_00043e24" type="motorcycle" begin="0" end="3600" vehsPerHour="62.19" departLane="best" departPos="random" departSpeed="0" from="-55029244#0" to="198876043#2"/>
  <flow id="motorcycle_-55029244#0_28231434_00043e24" type="motorcycle" begin="0" end="3600" vehsPerHour="55.42" departLane="best" departPos="random" departSpeed="0" from="-55029244#0" to="28231434"/>
  <flow id="motorcycle_-55029244#0_23241821#0_00043e24" type="motorcycle" begin="0" end="3600" vehsPerHour="48.19" departLane="best" departPos="random" departSpeed="0" from="-55029244#0" to="23241821#0"/>
  <flow id="car_34241530#0_198876042#0_00043e24" type="car" begin="0" end="3600" vehsPerHour="28.04" departLane="best" departPos="random" departSpeed="0" from="34241530#0" to="198876042#0"/>
  <flow id="car_34241530#0_193253427#0_00043e24" type="car" begin="0" end="3600" vehsPerHour="22.87" departLane="best" departPos="random" departSpeed="0" from="34241530#0" to="193253427#0"/>
  <flow id="car_34241530#0_198876043#2_00043e24" type="car" begin="0" end="3600" vehsPerHour="19.34" departLane="best" departPos="random" departSpeed="0" from="34241530#0" to="198876043#2"/>
  <flow id="car_34241530#0_28231434_00043e24" type="car" begin="0" end="3600" vehsPerHour="17.03" departLane="best" departPos="random" departSpeed="0" from="34241530#0" to="28231434"/>
  <flow id="car_34241530#0_23241821#0_00043e24" type="car" begin="0" end="3600" vehsPerHour="13.28" departLane="best" departPos="random" departSpeed="0" from="34241530#0" to="23241821#0"/>
  <flow id="motorcycle_34241530#0_198876042#0_00043e24" type="motorcycle" begin="0" end="3600" vehsPerHour="79.75" departLane="best" departPos="random" departSpeed="0" from="34241530#0" to="198876042#0"/>
  <flow id="motorcycle_34241530#0_193253427#0_00043e24" type="motorcycle" begin="0" end="3600" vehsPerHour="69.13" departLane="best" departPos="random" departSpeed="0" from="34241530#0" to="193253427#0"/>
  <flow id="motorcycle_34241530#0_198876043#2_00043e24" type="motorcycle" begin="0" end="3600" vehsPerHour="60.45" departLane="best" departPos="random" departSpeed="0" from="34241530#0" to="198876043#2"/>
  <flow id="motorcycle_34241530#0_28231434_00043e24" type="motorcycle" begin="0" end="3600" vehsPerHour="52.31" departLane="best" departPos="random" departSpeed="0" from="34241530#0" to="28231434"/>
  <flow id="motorcycle_34241530#0_23241821#0_00043e24" type="motorcycle" begin="0" end="3600" vehsPerHour="47.82" departLane="best" departPos="random" departSpeed="0" from="34241530#0" to="23241821#0"/>
  <flow id="truck_34241530#0_198876042#0_00043e24" type="truck" begin="0" end="3600" vehsPerHour="12.25" departLane="best" departPos="random" departSpeed="0" from="34241530#0" to="198876042#0"/>
</routes>
