<routes>
<vType id="car" vClass="passenger" accel="2.6" decel="4.5" sigma="0.5" length="5.0" maxSpeed="13.9"/>
<vType id="motorcycle" vClass="motorcycle" accel="3.0" decel="5.0" sigma="0.5" length="2.0" maxSpeed="14.0"/>
<vType id="truck" vClass="truck" accel="1.2" decel="3.5" sigma="0.5" length="12.0" maxSpeed="10.0"/>

  <flow id="car_222682222#1_193253427#0_0008d0b9" type="car" begin="0" end="3600" vehsPerHour="60.74" departLane="best" departPos="random" departSpeed="0" from="222682222#1" to="193253427#0"/>
  <flow id="car_222682222#1_198876043#0_0008d0b9" type="car" begin="0" end="3600" vehsPerHour="52.24" departLane="best" departPos="random" departSpeed="0" from="222682222#1" to="198876043#0"/>
  <flow id="car_222682222#1_28231434_0008d0b9" type="car" begin="0" end="3600" vehsPerHour="50.28" departLane="best" departPos="random" departSpeed="0" from="222682222#1" to="28231434"/>
  <flow id="car_222682222#1_23241821#0_0008d0b9" type="car" begin="0" end="3600" vehsPerHour="40.34" departLane="best" departPos="random" departSpeed="0" from="222682222#1" to="23241821#0"/>
  <flow id="car_222682222#1_198876042#0_0008d0b9" type="car" begin="0" end="3600" vehsPerHour="32.22" departLane="best" departPos="random" departSpeed="0" from="222682222#1" to="198876042#0"/>
  <flow id="motorcycle_222682222#1_193253427#0_0008d0b9" type="motorcycle" begin="0" end="3600" vehsPerHour="178.08" departLane="best" departPos="random" departSpeed="0" from="222682222#1" to="193253427#0"/>
  <flow id="motorcycle_222682222#1_198876043#0_0008d0b9" type="motorcycle" begin="0" end="3600" vehsPerHour="158.32" departLane="best" departPos="random" departSpeed="0" from="222682222#1" to="198876043#0"/>
  <flow id="motorcycle_222682222#1_28231434_0008d0b9" type="motorcycle" begin="0" end="3600" vehsPerHour="136.21" departLane="best" departPos="random" departSpeed="0" from="222682222#1" to="28231434"/>
  <flow id="motorcycle_222682222#1_23241821#0_0008d0b9" type="motorcycle" begin="0" end="3600" vehsPerHour="118.84" departLane="best" departPos="random" departSpeed="0" from="222682222#1" to="23241821#0"/>
  <flow id="motorcycle_222682222#1_198876042#0_0008d0b9" type="motorcycle" begin="0" end="3600" vehsPerHour="101.65" departLane="best" departPos="random" departSpeed="0" from="222682222#1" to="198876042#0"/>
  <flow id="car_193253433#2_198876043#0_0008d0b9" type="car" begin="0" end="3600" vehsPerHour="42.14" departLane="best" departPos="random" departSpeed="0" from="193253433#2" to="198876043#0"/>
  <flow id="car_193253433#2_28231434_0008d0b9" type="car" begin="0" end="3600" vehsPerHour="34.40" departLane="best" departPos="random" departSpeed="0" from="193253433#2" to="28231434"/>
  <flow id="car_193253433#2_23241821#0_0008d0b9" type="car" begin="0" end="3600" vehsPerHour="35.22" departLane="best" departPos="random" departSpeed="0" from="193253433#2" to="23241821#0"/>
  <flow id="car_193253433#2_198876042#0_0008d0b9" type="car" begin="0" end="3600" vehsPerHour="26.54" departLane="best" departPos="random" departSpeed="0" from="193253433#2" to="198876042#0"/>
  <flow id="car_193253433#2_193253427#0_0008d0b9" type="car" begin="0" end="3600" vehsPerHour="23.88" departLane="best" departPos="random" departSpeed="0" from="193253433#2" to="193253427#0"/>
  <flow id="motorcycle_193253433#2_198876043#0_0008d0b9" type="motorcycle" begin="0" end="3600" vehsPerHour="110.97" departLane="best" departPos="random" departSpeed="0" from="193253433#2" to="198876043#0"/>
  <flow id="motorcycle_193253433#2_28231434_0008d0b9" type="motorcycle" begin="0" end="3600" vehsPerHour="103.51" departLane="best" departPos="random" departSpeed="0" from="193253433#2" to="28231434"/>
  <flow id="motorcycle_193253433#2_23241821#0_0008d0b9" type="motorcycle" begin="0" end="3600" vehsPerHour="91.15" departLane="best" departPos="random" departSpeed="0" from="193253433#2" to="23241821#0"/>
  <flow id="motorcycle_193253433#2_198876042#0_0008d0b9" type="motorcycle" begin="0" end="3600" vehsPerHour="80.83" departLane="best" departPos="random" departSpeed="0" from="193253433#2" to="198876042#0"/>
  <flow id="motorcycle_193253433#2_193253427#0_0008d0b9" type="motorcycle" begin="0" end="3600" vehsPerHour="70.66" departLane="best" departPos="random" departSpeed="0" from="193253433#2" to="193253427#0"/>
  <flow id="car_198876045#1_28231434_0008d0b9" type="car" begin="0" end="3600" vehsPerHour="32.84" departLane="best" departPos="random" departSpeed="0" from="198876045#1" to="28231434"/>
  <flow id="car_198876045#1_23241821#0_0008d0b9" type="car" begin="0" end="3600" vehsPerHour="31.15" departLane="best" departPos="random" departSpeed="0" from="198876045#1" to="23241821#0"/>
  <flow id="car_198876045#1_198876042#0_0008d0b9" type="car" begin="0" end="3600" vehsPerHour="25.83" departLane="best" departPos="random" departSpeed="0" from="198876045#1" to="198876042#0"/>
  <flow id="car_198876045#1_193253427#0_0008d0b9" type="car" begin="0" end="3600" vehsPerHour="24.06" departLane="best" departPos="random" departSpeed="0" from="198876045#1" to="193253427#0"/>
  <flow id="car_198876045#1_198876043#2_0008d0b9" type="car" begin="0" end="3600" vehsPerHour="20.31" departLane="best" departPos="random" departSpeed="0" from="198876045#1" to="198876043#2"/>
  <flow id="motorcycle_198876045#1_28231434_0008d0b9" type="motorcycle" begin="0" end="3600" vehsPerHour="98.34" departLane="best" departPos="random" departSpeed="0" from="198876045#1" to="28231434"/>
  <flow id="motorcycle_198876045#1_23241821#0_0008d0b9" type="motorcycle" begin="0" end="3600" vehsPerHour="88.39" departLane="best" departPos="random" departSpeed="0" from="198876045#1" to="23241821#0"/>
  <flow id="motorcycle_198876045#1_198876042#0_0008d0b9" type="motorcycle" begin="0" end="3600" vehsPerHour="77.63" departLane="best" departPos="random" departSpeed="0" from="198876045#1" to="198876042#0"/>
  <flow id="motorcycle_198876045#1_193253427#0_0008d0b9" type="motorcycle" begin="0" end="3600" vehsPerHour="70.75" departLane="best" departPos="random" departSpeed="0" from="198876045#1" to="193253427#0"/>
  <flow id="motorcycle_198876045#1_198876043#2_0008d0b9" type="motorcycle" begin="0" end="3600" vehsPerHour="64.70" departLane="best" departPos="random" departSpeed="0" from="198876045#1" to="198876043#2"/>
  <flow id="car_-28231434_23241821#0_0008d0b9" type="car" begin="0" end="3600" vehsPerHour="24.39" departLane="best" departPos="random" departSpeed="0" from="-28231434" to="23241821#0"/>
  <flow id="car_-28231434_198876042#0_0008d0b9" type="car" begin="0" end="3600" vehsPerHour="19.30" departLane="best" departPos="random" departSpeed="0" from="-28231434" to="198876042#0"/>
  <flow id="car_-28231434_193253427#0_0008d0b9" type="car" begin="0" end="3600" vehsPerHour="17.38" departLane="best" departPos="random" departSpeed="0" from="-28231434" to="193253427#0"/>
  <flow id="car_-28231434_198876043#2_0008d0b9" type="car" begin="0" end="3600" vehsPerHour="16.27" departLane="best" departPos="random" departSpeed="0" from="-28231434" to="198876043#2"/>
  <flow id="car_-28231434_28231434_0008d0b9" type="car" begin="0" end="3600" vehsPerHour="12.84" departLane="best" departPos="random" departSpeed="0" from="-28231434" to="28231434"/>
  <flow id="motorcycle_-28231434_23241821#0_0008d0b9" type="motorcycle" begin="0" end="3600" vehsPerHour="70.29" departLane="best" departPos="random" departSpeed="0" from="-28231434" to="23241821#0"/>
  <flow id="motorcycle_-28231434_198876042#0_0008d0b9" type="motorcycle" begin="0" end="3600" vehsPerHour="61.96" departLane="best" departPos="random" departSpeed="0" from="-28231434" to="198876042#0"/>
  <flow id="motorcycle_-28231434_193253427#0_0008d0b9" type="motorcycle" begin="0" end="3600" vehsPerHour="54.05" departLane="best" departPos="random" departSpeed="0" from="-28231434" to="193253427#0"/>
  <flow id="motorcycle_-28231434_198876043#2_0008d0b9" type="motorcycle" begin="0" end="3600" vehsPerHour="45.02" departLane="best" departPos="random" departSpeed="0" from="-28231434" to="198876043#2"/>
  <flow id="motorcycle_-28231434_28231434_0008d0b9" type="motorcycle" begin="0" end="3600" vehsPerHour="41.20" departLane="best" departPos="random" departSpeed="0" from="-28231434" to="28231434"/>
  <flow id="car_-55029244#0_198876042#0_0008d0b9" type="car" begin="0" end="3600" vehsPerHour="28.17" departLane="best" departPos="random" departSpeed="0" from="-55029244#0" to="198876042#0"/>
  <flow id="car_-55029244#0_193253427#0_0008d0b9" type="car" begin="0" end="3600" vehsPerHour="23.70" departLane="best" departPos="random" departSpeed="0" from="-55029244#0" to="193253427#0"/>
  <flow id="car_-55029244#0_198876043#2_0008d0b9" type="car" begin="0" end="3600" vehsPerHour="20.11" departLane="best" departPos="random" departSpeed="0" from="-55029244#0" to="198876043#2"/>
  <flow id="car_-55029244#0_28231434_0008d0b9" type="car" begin="0" end="3600" vehsPerHour="17.68" departLane="best" departPos="random" departSpeed="0" from="-55029244#0" to="28231434"/>
  <flow id="car_-55029244#0_23241821#0_0008d0b9" type="car" begin="0" end="3600" vehsPerHour="13.77" departLane="best" departPos="random" departSpeed="0" from="-55029244#0" to="23241821#0"/>
  <flow id="motorcycle_-55029244#0_198876042#0_0008d0b9" type="motorcycle" begin="0" end="3600" vehsPerHour="81.98" departLane="best" departPos="random" departSpeed="0" from="-55029244#0" to="198876042#0"/>
  <flow id="motorcycle_-55029244#0_193253427#0_0008d0b9" type="motorcycle" begin="0" end="3600" vehsPerHour="69.12" departLane="best" departPos="random" departSpeed="0" from="-55029244#0" to="193253427#0"/>
  <flow id="motorcycle_-55029244#0_198876043#2_0008d0b9" type="motorcycle" begin="0" end="3600" vehsPerHour="61.58" departLane="best" departPos="random" departSpeed="0" from="-55029244#0" to="198876043#2"/>
  <flow id="motorcycle_-55029244#0_28231434_0008d0b9" type="motorcycle" begin="0" end="3600" vehsPerHour="53.80" departLane="best" departPos="random" departSpeed="0" from="-55029244#0" to="28231434"/>
  <flow id="motorcycle_-55029244#0_23241821#0_0008d0b9" type="motorcycle" begin="0" end="3600" vehsPerHour="46.70" departLane="best" departPos="random" departSpeed="0" from="-55029244#0" to="23241821#0"/>
  <flow id="car_34241530#0_198876042#0_0008d0b9" type="car" begin="0" end="3600" vehsPerHour="26.57" departLane="best" departPos="random" departSpeed="0" from="34241530#0" to="198876042#0"/>
  <flow id="car_34241530#0_193253427#0_0008d0b9" type="car" begin="0" end="3600" vehsPerHour="23.89" departLane="best" departPos="random" departSpeed="0" from="34241530#0" to="193253427#0"/>
  <flow id="car_34241530#0_198876043#2_0008d0b9" type="car" begin="0" end="3600" vehsPerHour="19.87" departLane="best" departPos="random" departSpeed="0" from="34241530#0" to="198876043#2"/>
  <flow id="car_34241530#0_28231434_0008d0b9" type="car" begin="0" end="3600" vehsPerHour="16.64" departLane="best" departPos="random" departSpeed="0" from="34241530#0" to="28231434"/>
  <flow id="car_34241530#0_23241821#0_0008d0b9" type="car" begin="0" end="3600" vehsPerHour="14.15" departLane="best" departPos="random" departSpeed="0" from="34241530#0" to="23241821#0"/>
  <flow id="motorcycle_34241530#0_198876042#0_0008d0b9" type="motorcycle" begin="0" end="3600" vehsPerHour="80.35" departLane="best" departPos="random" departSpeed="0" from="34241530#0" to="198876042#0"/>
  <flow id="motorcycle_34241530#0_193253427#0_0008d0b9" type="motorcycle" begin="0" end="3600" vehsPerHour="69.63" departLane="best" departPos="random" departSpeed="0" from="34241530#0" to="193253427#0"/>
  <flow id="motorcycle_34241530#0_198876043#2_0008d0b9" type="motorcycle" begin="0" end="3600" vehsPerHour="59.50" departLane="best" departPos="random" departSpeed="0" from="34241530#0" to="198876043#2"/>
  <flow id="motorcycle_34241530#0_28231434_0008d0b9" type="motorcycle" begin="0" end="3600" vehsPerHour="54.05" departLane="best" departPos="random" departSpeed="0" from="34241530#0" to="28231434"/>
  <flow id="motorcycle_34241530#0_23241821#0_0008d0b9" type="motorcycle" begin="0" end="3600" vehsPerHour="45.05" departLane="best" departPos="random" departSpeed="0" from="34241530#0" to="23241821#0"/>
  <flow id="truck_34241530#0_198876042#0_0008d0b9" type="truck" begin="0" end="3600" vehsPerHour="11.89" departLane="best" departPos="random" departSpeed="0" from="34241530#0" to="198876042#0"/>
</routes>
