<routes>
<vType id="car" vClass="passenger" accel="2.6" decel="4.5" sigma="0.5" length="5.0" maxSpeed="13.9"/>
<vType id="motorcycle" vClass="motorcycle" accel="3.0" decel="5.0" sigma="0.5" length="2.0" maxSpeed="14.0"/>
<vType id="truck" vClass="truck" accel="1.2" decel="3.5" sigma="0.5" length="12.0" maxSpeed="10.0"/>

  <flow id="car_222682222#1_193253427#0_000520c1" type="car" begin="0" end="3600" vehsPerHour="60.48" departLane="best" departPos="random" departSpeed="0" from="222682222#1" to="193253427#0"/>
  <flow id="car_222682222#1_198876043#0_000520c1" type="car" begin="0" end="3600" vehsPerHour="49.47" departLane="best" departPos="random" departSpeed="0" from="222682222#1" to="198876043#0"/>
  <flow id="car_222682222#1_28231434_000520c1" type="car" begin="0" end="3600" vehsPerHour="49.86" departLane="best" departPos="random" departSpeed="0" from="222682222#1" to="28231434"/>
  <flow id="car_222682222#1_23241821#0_000520c1" type="car" begin="0" end="3600" vehsPerHour="41.66" departLane="best" departPos="random" departSpeed="0" from="222682222#1" to="23241821#0"/>
  <flow id="car_222682222#1_198876042#0_000520c1" type="car" begin="0" end="3600" vehsPerHour="34.22" departLane="best" departPos="random" departSpeed="0" from="222682222#1" to="198876042#0"/>
  <flow id="motorcycle_222682222#1_193253427#0_000520c1" type="motorcycle" begin="0" end="3600" vehsPerHour="169.50" departLane="best" departPos="random" departSpeed="0" from="222682222#1" to="193253427#0"/>
  <flow id="motorcycle_222682222#1_198876043#0_000520c1" type="motorcycle" begin="0" end="3600" vehsPerHour="162.75" departLane="best" departPos="random" departSpeed="0" from="222682222#1" to="198876043#0"/>
  <flow id="motorcycle_222682222#1_28231434_000520c1" type="motorcycle" begin="0" end="3600" vehsPerHour="144.40" departLane="best" departPos="random" departSpeed="0" from="222682222#1" to="28231434"/>
  <flow id="motorcycle_222682222#1_23241821#0_000520c1" type="motorcycle" begin="0" end="3600" vehsPerHour="113.50" departLane="best" departPos="random" departSpeed="0" from="222682222#1" to="23241821#0"/>
  <flow id="motorcycle_222682222#1_198876042#0_000520c1" type="motorcycle" begin="0" end="3600" vehsPerHour="104.51" departLane="best" departPos="random" departSpeed="0" from="222682222#1" to="198876042#0"/>
  <flow id="car_193253433#2_198876043#0_000520c1" type="car" begin="0" end="3600" vehsPerHour="38.62" departLane="best" departPos="random" departSpeed="0" from="193253433#2" to="198876043#0"/>
  <flow id="car_193253433#2_28231434_000520c1" type="car" begin="0" end="3600" vehsPerHour="33.76" departLane="best" departPos="random" departSpeed="0" from="193253433#2" to="28231434"/>
  <flow id="car_193253433#2_23241821#0_000520c1" type="car" begin="0" end="3600" vehsPerHour="34.19" departLane="best" departPos="random" departSpeed="0" from="193253433#2" to="23241821#0"/>
  <flow id="car_193253433#2_198876042#0_000520c1" type="car" begin="0" end="3600" vehsPerHour="26.53" departLane="best" departPos="random" departSpeed="0" from="193253433#2" to="198876042#0"/>
  <flow id="car_193253433#2_193253427#0_000520c1" type="car" begin="0" end="3600" vehsPerHour="23.61" departLane="best" departPos="random" departSpeed="0" from="193253433#2" to="193253427#0"/>
  <flow id="motorcycle_193253433#2_198876043#0_000520c1" type="motorcycle" begin="0" end="3600" vehsPerHour="116.96" departLane="best" departPos="random" departSpeed="0" from="193253433#2" to="198876043#0"/>
  <flow id="motorcycle_193253433#2_28231434_000520c1" type="motorcycle" begin="0" end="3600" vehsPerHour="96.94" departLane="best" departPos="random" departSpeed="0" from="193253433#2" to="28231434"/>
  <flow id="motorcycle_193253433#2_23241821#0_000520c1" type="motorcycle" begin="0" end="3600" vehsPerHour="97.81" departLane="best" departPos="random" departSpeed="0" from="193253433#2" to="23241821#0"/>
  <flow id="motorcycle_193253433#2_198876042#0_000520c1" type="motorcycle" begin="0" end="3600" vehsPerHour="80.77" departLane="best" departPos="random" departSpeed="0" from="193253433#2" to="198876042#0"/>
  <flow id="motorcycle_193253433#2_193253427#0_000520c1" type="motorcycle" begin="0" end="3600" vehsPerHour="68.20" departLane="best" departPos="random" departSpeed="0" from="193253433#2" to="193253427#0"/>
  <flow id="car_198876045#1_28231434_000520c1" type="car" begin="0" end="3600" vehsPerHour="35.18" departLane="best" departPos="random" departSpeed="0" from="198876045#1" to="28231434"/>
  <flow id="car_198876045#1_23241821#0_000520c1" type="car" begin="0" end="3600" vehsPerHour="31.44" departLane="best" departPos="random" departSpeed="0" from="198876045#1" to="23241821#0"/>
  <flow id="car_198876045#1_198876042#0_000520c1" type="car" begin="0" end="3600" vehsPerHour="25.92" departLane="best" departPos="random" departSpeed="0" from="198876045#1" to="198876042#0"/>
  <flow id="car_198876045#1_193253427#0_000520c1" type="car" begin="0" end="3600" vehsPerHour="22.86" departLane="best" departPos="random" departSpeed="0" from="198876045#1" to="193253427#0"/>
  <flow id="car_198876045#1_198876043#2_000520c1" type="car" begin="0" end="3600" vehsPerHour="19.98" departLane="best" departPos="random" departSpeed="0" from="198876045#1" to="198876043#2"/>
  <flow id="motorcycle_198876045#1_28231434_000520c1" type="motorcycle" begin="0" end="3600" vehsPerHour="102.18" departLane="best" departPos="random" departSpeed="0" from="198876045#1" to="28231434"/>
  <flow id="motorcycle_198876045#1_23241821#0_000520c1" type="motorcycle" begin="0" end="3600" vehsPerHour="88.75" departLane="best" departPos="random" departSpeed="0" from="198876045#1" to="23241821#0"/>
  <flow id="motorcycle_198876045#1_198876042#0_000520c1" type="motorcycle" begin="0" end="3600" vehsPerHour="79.09" departLane="best" departPos="random" departSpeed="0" from="198876045#1" to="198876042#0"/>
  <flow id="motorcycle_198876045#1_193253427#0_000520c1" type="motorcycle" begin="0" end="3600" vehsPerHour="71.14" departLane="best" departPos="random" departSpeed="0" from="198876045#1" to="193253427#0"/>
  <flow id="motorcycle_198876045#1_198876043#2_000520c1" type="motorcycle" begin="0" end="3600" vehsPerHour="69.02" departLane="best" departPos="random" departSpeed="0" from="198876045#1" to="198876043#2"/>
  <flow id="car_-28231434_23241821#0_000520c1" type="car" begin="0" end="3600" vehsPerHour="24.43" departLane="best" departPos="random" departSpeed="0" from="-28231434" to="23241821#0"/>
  <flow id="car_-28231434_198876042#0_000520c1" type="car" begin="0" end="3600" vehsPerHour="20.27" departLane="best" departPos="random" departSpeed="0" from="-28231434" to="198876042#0"/>
  <flow id="car_-28231434_193253427#0_000520c1" type="car" begin="0" end="3600" vehsPerHour="16.99" departLane="best" departPos="random" departSpeed="0" from="-28231434" to="193253427#0"/>
  <flow id="car_-28231434_198876043#2_000520c1" type="car" begin="0" end="3600" vehsPerHour="16.45" departLane="best" departPos="random" departSpeed="0" from="-28231434" to="198876043#2"/>
  <flow id="car_-28231434_28231434_000520c1" type="car" begin="0" end="3600" vehsPerHour="13.46" departLane="best" departPos="random" departSpeed="0" from="-28231434" to="28231434"/>
  <flow id="motorcycle_-28231434_23241821#0_000520c1" type="motorcycle" begin="0" end="3600" vehsPerHour="67.05" departLane="best" departPos="random" departSpeed="0" from="-28231434" to="23241821#0"/>
  <flow id="motorcycle_-28231434_198876042#0_000520c1" type="motorcycle" begin="0" end="3600" vehsPerHour="62.39" departLane="best" departPos="random" departSpeed="0" from="-28231434" to="198876042#0"/>
  <flow id="motorcycle_-28231434_193253427#0_000520c1" type="motorcycle" begin="0" end="3600" vehsPerHour="51.24" departLane="best" departPos="random" departSpeed="0" from="-28231434" to="193253427#0"/>
  <flow id="motorcycle_-28231434_198876043#2_000520c1" type="motorcycle" begin="0" end="3600" vehsPerHour="45.68" departLane="best" departPos="random" departSpeed="0" from="-28231434" to="198876043#2"/>
  <flow id="motorcycle_-28231434_28231434_000520c1" type="motorcycle" begin="0" end="3600" vehsPerHour="40.23" departLane="best" departPos="random" departSpeed="0" from="-28231434" to="28231434"/>
  <flow id="car_-55029244#0_198876042#0_000520c1" type="car" begin="0" end="3600" vehsPerHour="26.28" departLane="best" departPos="random" departSpeed="0" from="-55029244#0" to="198876042#0"/>
  <flow id="car_-55029244#0_193253427#0_000520c1" type="car" begin="0" end="3600" vehsPerHour="22.78" departLane="best" departPos="random" departSpeed="0" from="-55029244#0" to="193253427#0"/>
  <flow id="car_-55029244#0_198876043#2_000520c1" type="car" begin="0" end="3600" vehsPerHour="20.42" departLane="best" departPos="random" departSpeed="0" from="-55029244#0" to="198876043#2"/>
  <flow id="car_-55029244#0_28231434_000520c1" type="car" begin="0" end="3600" vehsPerHour="17.41" departLane="best" departPos="random" departSpeed="0" from="-55029244#0" to="28231434"/>
  <flow id="car_-55029244#0_23241821#0_000520c1" type="car" begin="0" end="3600" vehsPerHour="13.65" departLane="best" departPos="random" departSpeed="0" from="-55029244#0" to="23241821#0"/>
  <flow id="motorcycle_-55029244#0_198876042#0_000520c1" type="motorcycle" begin="0" end="3600" vehsPerHour="80.20" departLane="best" departPos="random" departSpeed="0" from="-55029244#0" to="198876042#0"/>
  <flow id="motorcycle_-55029244#0_193253427#0_000520c1" type="motorcycle" begin="0" end="3600" vehsPerHour="68.89" departLane="best" departPos="random" departSpeed="0" from="-55029244#0" to="193253427#0"/>
  <flow id="motorcycle_-55029244#0_198876043#2_000520c1" type="motorcycle" begin="0" end="3600" vehsPerHour="59.92" departLane="best" departPos="random" departSpeed="0" from="-55029244#0" to="198876043#2"/>
  <flow id="motorcycle_-55029244#0_28231434_000520c1" type="motorcycle" begin="0" end="3600" vehsPerHour="53.22" departLane="best" departPos="random" departSpeed="0" from="-55029244#0" to="28231434"/>
  <flow id="motorcycle_-55029244#0_23241821#0_000520c1" type="motorcycle" begin="0" end="3600" vehsPerHour="45.31" departLane="best" departPos="random" departSpeed="0" from="-55029244#0" to="23241821#0"/>
  <flow id="car_34241530#0_198876042#0_000520c1" type="car" begin="0" end="3600" vehsPerHour="26.84" departLane="best" departPos="random" departSpeed="0" from="34241530#0" to="198876042#0"/>
  <flow id="car_34241530#0_193253427#0_000520c1" type="car" begin="0" end="3600" vehsPerHour="22.61" departLane="best" departPos="random" departSpeed="0" from="34241530#0" to="193253427#0"/>
  <flow id="car_34241530#0_198876043#2_000520c1" type="car" begin="0" end="3600" vehsPerHour="20.61" departLane="best" departPos="random" departSpeed="0" from="34241530#0" to="198876043#2"/>
  <flow id="car_34241530#0_28231434_000520c1" type="car" begin="0" end="3600" vehsPerHour="16.08" departLane="best" departPos="random" departSpeed="0" from="34241530#0" to="28231434"/>
  <flow id="car_34241530#0_23241821#0_000520c1" type="car" begin="0" end="3600" vehsPerHour="13.40" departLane="best" departPos="random" departSpeed="0" from="34241530#0" to="23241821#0"/>
  <flow id="motorcycle_34241530#0_198876042#0_000520c1" type="motorcycle" begin="0" end="3600" vehsPerHour="83.46" departLane="best" departPos="random" departSpeed="0" from="34241530#0" to="198876042#0"/>
  <flow id="motorcycle_34241530#0_193253427#0_000520c1" type="motorcycle" begin="0" end="3600" vehsPerHour="64.11" departLane="best" departPos="random" departSpeed="0" from="34241530#0" to="193253427#0"/>
  <flow id="motorcycle_34241530#0_198876043#2_000520c1" type="motorcycle" begin="0" end="3600" vehsPerHour="63.31" departLane="best" departPos="random" departSpeed="0" from="34241530#0" to="198876043#2"/>
  <flow id="motorcycle_34241530#0_28231434_000520c1" type="motorcycle" begin="0" end="3600" vehsPerHour="53.56" departLane="best" departPos="random" departSpeed="0" from="34241530#0" to="28231434"/>
  <flow id="motorcycle_34241530#0_23241821#0_000520c1" type="motorcycle" begin="0" end="3600" vehsPerHour="46.71" departLane="best" departPos="random" departSpeed="0" from="34241530#0" to="23241821#0"/>
  <flow id="truck_34241530#0_198876042#0_000520c1" type="truck" begin="0" end="3600" vehsPerHour="11.68" departLane="best" departPos="random" departSpeed="0" from="34241530#0" to="198876042#0"/>
</routes>
