<routes>
<vType id="car" vClass="passenger" accel="2.6" decel="4.5" sigma="0.5" length="5.0" maxSpeed="13.9"/>
<vType id="motorcycle" vClass="motorcycle" accel="3.0" decel="5.0" sigma="0.5" length="2.0" maxSpeed="14.0"/>
<vType id="truck" vClass="truck" accel="1.2" decel="3.5" sigma="0.5" length="12.0" maxSpeed="10.0"/>

  <flow id="car_222682222#1_193253427#0_0008ad69" type="car" begin="0" end="3600" vehsPerHour="62.95" departLane="best" departPos="random" departSpeed="0" from="222682222#1" to="193253427#0"/>
  <flow id="car_222682222#1_198876043#0_0008ad69" type="car" begin="0" end="3600" vehsPerHour="51.22" departLane="best" departPos="random" departSpeed="0" from="222682222#1" to="198876043#0"/>
  <flow id="car_222682222#1_28231434_0008ad69" type="car" begin="0" end="3600" vehsPerHour="51.80" departLane="best" departPos="random" departSpeed="0" from="222682222#1" to="28231434"/>
  <flow id="car_222682222#1_23241821#0_0008ad69" type="car" begin="0" end="3600" vehsPerHour="40.00" departLane="best" departPos="random" departSpeed="0" from="222682222#1" to="23241821#0"/>
  <flow id="car_222682222#1_198876042#0_0008ad69" type="car" begin="0" end="3600" vehsPerHour="35.10" departLane="best" departPos="random" departSpeed="0" from="222682222#1" to="198876042#0"/>
  <flow id="motorcycle_222682222#1_193253427#0_0008ad69" type="motorcycle" begin="0" end="3600" vehsPerHour="183.15" departLane="best" departPos="random" departSpeed="0" from="222682222#1" to="193253427#0"/>
  <flow id="motorcycle_222682222#1_198876043#0_0008ad69" type="motorcycle" begin="0" end="3600" vehsPerHour="152.38" departLane="best" departPos="random" departSpeed="0" from="222682222#1" to="198876043#0"/>
  <flow id="motorcycle_222682222#1_28231434_0008ad69" type="motorcycle" begin="0" end="3600" vehsPerHour="147.75" departLane="best" departPos="random" departSpeed="0" from="222682222#1" to="28231434"/>
  <flow id="motorcycle_222682222#1_23241821#0_0008ad69" type="motorcycle" begin="0" end="3600" vehsPerHour="117.49" departLane="best" departPos="random" departSpeed="0" from="222682222#1" to="23241821#0"/>
  <flow id="motorcycle_222682222#1_198876042#0_0008ad69" type="motorcycle" begin="0" end="3600" vehsPerHour="98.85" departLane="best" departPos="random" departSpeed="0" from="222682222#1" to="198876042#0"/>
  <flow id="car_193253433#2_198876043#0_0008ad69" type="car" begin="0" end="3600" vehsPerHour="39.97" departLane="best" departPos="random" departSpeed="0" from="193253433#2" to="198876043#0"/>
  <flow id="car_193253433#2_28231434_0008ad69" type="car" begin="0" end="3600" vehsPerHour="32.24" departLane="best" departPos="random" departSpeed="0" from="193253433#2" to="28231434"/>
  <flow id="car_193253433#2_23241821#0_0008ad69" type="car" begin="0" end="3600" vehsPerHour="34.64" departLane="best" departPos="random" departSpeed="0" from="193253433#2" to="23241821#0"/>
  <flow id="car_193253433#2_198876042#0_0008ad69" type="car" begin="0" end="3600" vehsPerHour="27.10" departLane="best" departPos="random" departSpeed="0" from="193253433#2" to="198876042#0"/>
  <flow id="car_193253433#2_193253427#0_0008ad69" type="car" begin="0" end="3600" vehsPerHour="22.43" departLane="best" departPos="random" departSpeed="0" from="193253433#2" to="193253427#0"/>
  <flow id="motorcycle_193253433#2_198876043#0_0008ad69" type="motorcycle" begin="0" end="3600" vehsPerHour="108.88" departLane="best" departPos="random" departSpeed="0" from="193253433#2" to="198876043#0"/>
  <flow id="motorcycle_193253433#2_28231434_0008ad69" type="motorcycle" begin="0" end="3600" vehsPerHour="98.14" departLane="best" departPos="random" departSpeed="0" from="193253433#2" to="28231434"/>
  <flow id="motorcycle_193253433#2_23241821#0_0008ad69" type="motorcycle" begin="0" end="3600" vehsPerHour="93.88" departLane="best" departPos="random" departSpeed="0" from="193253433#2" to="23241821#0"/>
  <flow id="motorcycle_193253433#2_198876042#0_0008ad69" type="motorcycle" begin="0" end="3600" vehsPerHour="78.52" departLane="best" departPos="random" departSpeed="0" from="193253433#2" to="198876042#0"/>
  <flow id="motorcycle_193253433#2_193253427#0_0008ad69" type="motorcycle" begin="0" end="3600" vehsPerHour="66.17" departLane="best" departPos="random" departSpeed="0" from="193253433#2" to="193253427#0"/>
  <flow id="car_198876045#1_28231434_0008ad69" type="car" begin="0" end="3600" vehsPerHour="32.86" departLane="best" departPos="random" departSpeed="0" from="198876045#1" to="28231434"/>
  <flow id="car_198876045#1_23241821#0_0008ad69" type="car" begin="0" end="3600" vehsPerHour="30.31" departLane="best" departPos="random" departSpeed="0" from="198876045#1" to="23241821#0"/>
  <flow id="car_198876045#1_198876042#0_0008ad69" type="car" begin="0" end="3600" vehsPerHour="27.02" departLane="best" departPos="random" departSpeed="0" from="198876045#1" to="198876042#0"/>
  <flow id="car_198876045#1_193253427#0_0008ad69" type="car" begin="0" end="3600" vehsPerHour="24.61" departLane="best" departPos="random" departSpeed="0" from="198876045#1" to="193253427#0"/>
  <flow id="car_198876045#1_198876043#2_0008ad69" type="car" begin="0" end="3600" vehsPerHour="19.76" departLane="best" departPos="random" departSpeed="0" from="198876045#1" to="198876043#2"/>
  <flow id="motorcycle_198876045#1_28231434_0008ad69" type="motorcycle" begin="0" end="3600" vehsPerHour="100.63" departLane="best" departPos="random" departSpeed="0" from="198876045#1" to="28231434"/>
  <flow id="motorcycle_198876045#1_23241821#0_0008ad69" type="motorcycle" begin="0" end="3600" vehsPerHour="90.12" departLane="best" departPos="random" departSpeed="0" from="198876045#1" to="23241821#0"/>
  <flow id="motorcycle_198876045#1_198876042#0_0008ad69" type="motorcycle" begin="0" end="3600" vehsPerHour="83.02" departLane="best" departPos="random" departSpeed="0" from="198876045#1" to="198876042#0"/>
  <flow id="motorcycle_198876045#1_193253427#0_0008ad69" type="motorcycle" begin="0" end="3600" vehsPerHour="76.16" departLane="best" departPos="random" departSpeed="0" from="198876045#1" to="193253427#0"/>
  <flow id="motorcycle_198876045#1_198876043#2_0008ad69" type="motorcycle" begin="0" end="3600" vehsPerHour="65.68" departLane="best" departPos="random" departSpeed="0" from="198876045#1" to="198876043#2"/>
  <flow id="car_-28231434_23241821#0_0008ad69" type="car" begin="0" end="3600" vehsPerHour="22.86" departLane="best" departPos="random" departSpeed="0" from="-28231434" to="23241821#0"/>
  <flow id="car_-28231434_198876042#0_0008ad69" type="car" begin="0" end="3600" vehsPerHour="20.27" departLane="best" departPos="random" departSpeed="0" from="-28231434" to="198876042#0"/>
  <flow id="car_-28231434_193253427#0_0008ad69" type="car" begin="0" end="3600" vehsPerHour="17.06" departLane="best" departPos="random" departSpeed="0" from="-28231434" to="193253427#0"/>
  <flow id="car_-28231434_198876043#2_0008ad69" type="car" begin="0" end="3600" vehsPerHour="17.38" departLane="best" departPos="random" departSpeed="0" from="-28231434" to="198876043#2"/>
  <flow id="car_-28231434_28231434_0008ad69" type="car" begin="0" end="3600" vehsPerHour="13.08" departLane="best" departPos="random" departSpeed="0" from="-28231434" to="28231434"/>
  <flow id="motorcycle_-28231434_23241821#0_0008ad69" type="motorcycle" begin="0" end="3600" vehsPerHour="64.21" departLane="best" departPos="random" departSpeed="0" from="-28231434" to="23241821#0"/>
  <flow id="motorcycle_-28231434_198876042#0_0008ad69" type="motorcycle" begin="0" end="3600" vehsPerHour="62.21" departLane="best" departPos="random" departSpeed="0" from="-28231434" to="198876042#0"/>
  <flow id="motorcycle_-28231434_193253427#0_0008ad69" type="motorcycle" begin="0" end="3600" vehsPerHour="56.56" departLane="best" departPos="random" departSpeed="0" from="-28231434" to="193253427#0"/>
  <flow id="motorcycle_-28231434_198876043#2_0008ad69" type="motorcycle" begin="0" end="3600" vehsPerHour="44.99" departLane="best" departPos="random" departSpeed="0" from="-28231434" to="198876043#2"/>
  <flow id="motorcycle_-28231434_28231434_0008ad69" type="motorcycle" begin="0" end="3600" vehsPerHour="39.17" departLane="best" departPos="random" departSpeed="0" from="-28231434" to="28231434"/>
  <flow id="car_-55029244#0_198876042#0_0008ad69" type="car" begin="0" end="3600" vehsPerHour="27.21" departLane="best" departPos="random" departSpeed="0" from="-55029244#0" to="198876042#0"/>
  <flow id="car_-55029244#0_193253427#0_0008ad69" type="car" begin="0" end="3600" vehsPerHour="23.57" departLane="best" departPos="random" departSpeed="0" from="-55029244#0" to="193253427#0"/>
  <flow id="car_-55029244#0_198876043#2_0008ad69" type="car" begin="0" end="3600" vehsPerHour="19.27" departLane="best" departPos="random" departSpeed="0" from="-55029244#0" to="198876043#2"/>
  <flow id="car_-55029244#0_28231434_0008ad69" type="car" begin="0" end="3600" vehsPerHour="16.38" departLane="best" departPos="random" departSpeed="0" from="-55029244#0" to="28231434"/>
  <flow id="car_-55029244#0_23241821#0_0008ad69" type="car" begin="0" end="3600" vehsPerHour="13.23" departLane="best" departPos="random" departSpeed="0" from="-55029244#0" to="23241821#0"/>
  <flow id="motorcycle_-55029244#0_198876042#0_0008ad69" type="motorcycle" begin="0" end="3600" vehsPerHour="79.46" departLane="best" departPos="random" departSpeed="0" from="-55029244#0" to="198876042#0"/>
  <flow id="motorcycle_-55029244#0_193253427#0_0008ad69" type="motorcycle" begin="0" end="3600" vehsPerHour="68.84" departLane="best" departPos="random" departSpeed="0" from="-55029244#0" to="193253427#0"/>
  <flow id="motorcycle_-55029244#0_198876043#2_0008ad69" type="motorcycle" begin="0" end="3600" vehsPerHour="59.23" departLane="best" departPos="random" departSpeed="0" from="-55029244#0" to="198876043#2"/>
  <flow id="motorcycle_-55029244#0_28231434_0008ad69" type="motorcycle" begin="0" end="3600" vehsPerHour="53.99" departLane="best" departPos="random" departSpeed="0" from="-55029244#0" to="28231434"/>
  <flow id="motorcycle_-55029244#0_23241821#0_0008ad69" type="motorcycle" begin="0" end="3600" vehsPerHour="47.99" departLane="best" departPos="random" departSpeed="0" from="-55029244#0" to="23241821#0"/>
  <flow id="car_34241530#0_198876042#0_0008ad69" type="car" begin="0" end="3600" vehsPerHour="26.15" departLane="best" departPos="random" departSpeed="0" from="34241530#0" to="198876042#0"/>
  <flow id="car_34241530#0_193253427#0_0008ad69" type="car" begin="0" end="3600" vehsPerHour="23.35" departLane="best" departPos="random" departSpeed="0" from="34241530#0" to="193253427#0"/>
  <flow id="car_34241530#0_198876043#2_0008ad69" type="car" begin="0" end="3600" vehsPerHour="19.78" departLane="best" departPos="random" departSpeed="0" from="34241530#0" to="198876043#2"/>
  <flow id="car_34241530#0_28231434_0008ad69" type="car" begin="0" end="3600" vehsPerHour="16.54" departLane="best" departPos="random" departSpeed="0" from="34241530#0" to="28231434"/>
  <flow id="car_34241530#0_23241821#0_0008ad69" type="car" begin="0" end="3600" vehsPerHour="13.99" departLane="best" departPos="random" departSpeed="0" from="34241530#0" to="23241821#0"/>
  <flow id="motorcycle_34241530#0_198876042#0_0008ad69" type="motorcycle" begin="0" end="3600" vehsPerHour="80.43" departLane="best" departPos="random" departSpeed="0" from="34241530#0" to="198876042#0"/>
  <flow id="motorcycle_34241530#0_193253427#0_0008ad69" type="motorcycle" begin="0" end="3600" vehsPerHour="68.15" departLane="best" departPos="random" departSpeed="0" from="34241530#0" to="193253427#0"/>
  <flow id="motorcycle_34241530#0_198876043#2_0008ad69" type="motorcycle" begin="0" end="3600" vehsPerHour="63.22" departLane="best" departPos="random" departSpeed="0" from="34241530#0" to="198876043#2"/>
  <flow id="motorcycle_34241530#0_28231434_0008ad69" type="motorcycle" begin="0" end="3600" vehsPerHour="56.20" departLane="best" departPos="random" departSpeed="0" from="34241530#0" to="28231434"/>
  <flow id="motorcycle_34241530#0_23241821#0_0008ad69" type="motorcycle" begin="0" end="3600" vehsPerHour="48.41" departLane="best" departPos="random" departSpeed="0" from="34241530#0" to="23241821#0"/>
  <flow id="truck_34241530#0_198876042#0_0008ad69" type="truck" begin="0" end="3600" vehsPerHour="11.64" departLane="best" departPos="random" departSpeed="0" from="34241530#0" to="198876042#0"/>
</routes>
