<routes>
<vType id="car" vClass="passenger" accel="2.6" decel="4.5" sigma="0.5" length="5.0" maxSpeed="13.9"/>
<vType id="motorcycle" vClass="motorcycle" accel="3.0" decel="5.0" sigma="0.5" length="2.0" maxSpeed="14.0"/>
<vType id="truck" vClass="truck" accel="1.2" decel="3.5" sigma="0.5" length="12.0" maxSpeed="10.0"/>

  <flow id="car_222682222#1_193253427#0_000860eb" type="car" begin="0" end="3600" vehsPerHour="61.49" departLane="best" departPos="random" departSpeed="0" from="222682222#1" to="193253427#0"/>
  <flow id="car_222682222#1_198876043#0_000860eb" type="car" begin="0" end="3600" vehsPerHour="50.92" departLane="best" departPos="random" departSpeed="0" from="222682222#1" to="198876043#0"/>
  <flow id="car_222682222#1_28231434_000860eb" type="car" begin="0" end="3600" vehsPerHour="52.85" departLane="best" departPos="random" departSpeed="0" from="222682222#1" to="28231434"/>
  <flow id="car_222682222#1_23241821#0_000860eb" type="car" begin="0" end="3600" vehsPerHour="40.10" departLane="best" departPos="random" departSpeed="0" from="222682222#1" to="23241821#0"/>
  <flow id="car_222682222#1_198876042#0_000860eb" type="car" begin="0" end="3600" vehsPerHour="34.19" departLane="best" departPos="random" departSpeed="0" from="222682222#1" to="198876042#0"/>
  <flow id="motorcycle_222682222#1_193253427#0_000860eb" type="motorcycle" begin="0" end="3600" vehsPerHour="167.71" departLane="best" departPos="random" departSpeed="0" from="222682222#1" to="193253427#0"/>
  <flow id="motorcycle_222682222#1_198876043#0_000860eb" type="motorcycle" begin="0" end="3600" vehsPerHour="148.23" departLane="best" departPos="random" departSpeed="0" from="222682222#1" to="198876043#0"/>
  <flow id="motorcycle_222682222#1_28231434_000860eb" type="motorcycle" begin="0" end="3600" vehsPerHour="145.49" departLane="best" departPos="random" departSpeed="0" from="222682222#1" to="28231434"/>
  <flow id="motorcycle_222682222#1_23241821#0_000860eb" type="motorcycle" begin="0" end="3600" vehsPerHour="117.96" departLane="best" departPos="random" departSpeed="0" from="222682222#1" to="23241821#0"/>
  <flow id="motorcycle_222682222#1_198876042#0_000860eb" type="motorcycle" begin="0" end="3600" vehsPerHour="100.62" departLane="best" departPos="random" departSpeed="0" from="222682222#1" to="198876042#0"/>
  <flow id="car_193253433#2_198876043#0_000860eb" type="car" begin="0" end="3600" vehsPerHour="39.61" departLane="best" departPos="random" departSpeed="0" from="193253433#2" to="198876043#0"/>
  <flow id="car_193253433#2_28231434_000860eb" type="car" begin="0" end="3600" vehsPerHour="34.26" departLane="best" departPos="random" departSpeed="0" from="193253433#2" to="28231434"/>
  <flow id="car_193253433#2_23241821#0_000860eb" type="car" begin="0" end="3600" vehsPerHour="32.54" departLane="best" departPos="random" departSpeed="0" from="193253433#2" to="23241821#0"/>
  <flow id="car_193253433#2_198876042#0_000860eb" type="car" begin="0" end="3600" vehsPerHour="26.44" departLane="best" departPos="random" departSpeed="0" from="193253433#2" to="198876042#0"/>
  <flow id="car_193253433#2_193253427#0_000860eb" type="car" begin="0" end="3600" vehsPerHour="22.74" departLane="best" departPos="random" departSpeed="0" from="193253433#2" to="193253427#0"/>
  <flow id="motorcycle_193253433#2_198876043#0_000860eb" type="motorcycle" begin="0" end="3600" vehsPerHour="110.05" departLane="best" departPos="random" departSpeed="0" from="193253433#2" to="198876043#0"/>
  <flow id="motorcycle_193253433#2_28231434_000860eb" type="motorcycle" begin="0" end="3600" vehsPerHour="99.65" departLane="best" departPos="random" departSpeed="0" from="193253433#2" to="28231434"/>
  <flow id="motorcycle_193253433#2_23241821#0_000860eb" type="motorcycle" begin="0" end="3600" vehsPerHour="89.68" departLane="best" departPos="random" departSpeed="0" from="193253433#2" to="23241821#0"/>
  <flow id="motorcycle_193253433#2_198876042#0_000860eb" type="motorcycle" begin="0" end="3600" vehsPerHour="81.85" departLane="best" departPos="random" departSpeed="0" from="193253433#2" to="198876042#0"/>
  <flow id="motorcycle_193253433#2_193253427#0_000860eb" type="motorcycle" begin="0" end="3600" vehsPerHour="66.96" departLane="best" departPos="random" departSpeed="0" from="193253433#2" to="193253427#0"/>
  <flow id="car_198876045#1_28231434_000860eb" type="car" begin="0" end="3600" vehsPerHour="35.14" departLane="best" departPos="random" departSpeed="0" from="198876045#1" to="28231434"/>
  <flow id="car_198876045#1_23241821#0_000860eb" type="car" begin="0" end="3600" vehsPerHour="31.74" departLane="best" departPos="random" departSpeed="0" from="198876045#1" to="23241821#0"/>
  <flow id="car_198876045#1_198876042#0_000860eb" type="car" begin="0" end="3600" vehsPerHour="26.87" departLane="best" departPos="random" departSpeed="0" from="198876045#1" to="198876042#0"/>
  <flow id="car_198876045#1_193253427#0_000860eb" type="car" begin="0" end="3600" vehsPerHour="23.95" departLane="best" departPos="random" departSpeed="0" from="198876045#1" to="193253427#0"/>
  <flow id="car_198876045#1_198876043#2_000860eb" type="car" begin="0" end="3600" vehsPerHour="19.50" departLane="best" departPos="random" departSpeed="0" from="198876045#1" to="198876043#2"/>
  <flow id="motorcycle_198876045#1_28231434_000860eb" type="motorcycle" begin="0" end="3600" vehsPerHour="99.47" departLane="best" departPos="random" departSpeed="0" from="198876045#1" to="28231434"/>
  <flow id="motorcycle_198876045#1_23241821#0_000860eb" type="motorcycle" begin="0" end="3600" vehsPerHour="85.20" departLane="best" departPos="random" departSpeed="0" from="198876045#1" to="23241821#0"/>
  <flow id="motorcycle_198876045#1_198876042#0_000860eb" type="motorcycle" begin="0" end="3600" vehsPerHour="76.98" departLane="best" departPos="random" departSpeed="0" from="198876045#1" to="198876042#0"/>
  <flow id="motorcycle_198876045#1_193253427#0_000860eb" type="motorcycle" begin="0" end="3600" vehsPerHour="74.78" departLane="best" departPos="random" departSpeed="0" from="198876045#1" to="193253427#0"/>
  <flow id="motorcycle_198876045#1_198876043#2_000860eb" type="motorcycle" begin="0" end="3600" vehsPerHour="66.36" departLane="best" departPos="random" departSpeed="0" from="198876045#1" to="198876043#2"/>
  <flow id="car_-28231434_23241821#0_000860eb" type="car" begin="0" end="3600" vehsPerHour="24.47" departLane="best" departPos="random" departSpeed="0" from="-28231434" to="23241821#0"/>
  <flow id="car_-28231434_198876042#0_000860eb" type="car" begin="0" end="3600" vehsPerHour="19.57" departLane="best" departPos="random" departSpeed="0" from="-28231434" to="198876042#0"/>
  <flow id="car_-28231434_193253427#0_000860eb" type="car" begin="0" end="3600" vehsPerHour="16.96" departLane="best" departPos="random" departSpeed="0" from="-28231434" to="193253427#0"/>
  <flow id="car_-28231434_198876043#2_000860eb" type="car" begin="0" end="3600" vehsPerHour="17.44" departLane="best" departPos="random" departSpeed="0" from="-28231434" to="198876043#2"/>
  <flow id="car_-28231434_28231434_000860eb" type="car" begin="0" end="3600" vehsPerHour="13.52" departLane="best" departPos="random" departSpeed="0" from="-28231434" to="28231434"/>
  <flow id="motorcycle_-28231434_23241821#0_000860eb" type="motorcycle" begin="0" end="3600" vehsPerHour="66.27" departLane="best" departPos="random" departSpeed="0" from="-28231434" to="23241821#0"/>
  <flow id="motorcycle_-28231434_198876042#0_000860eb" type="motorcycle" begin="0" end="3600" vehsPerHour="59.21" departLane="best" departPos="random" departSpeed="0" from="-28231434" to="198876042#0"/>
  <flow id="motorcycle_-28231434_193253427#0_000860eb" type="motorcycle" begin="0" end="3600" vehsPerHour="54.18" departLane="best" departPos="random" departSpeed="0" from="-28231434" to="193253427#0"/>
  <flow id="motorcycle_-28231434_198876043#2_000860eb" type="motorcycle" begin="0" end="3600" vehsPerHour="46.91" departLane="best" departPos="random" departSpeed="0" from="-28231434" to="198876043#2"/>
  <flow id="motorcycle_-28231434_28231434_000860eb" type="motorcycle" begin="0" end="3600" vehsPerHour="40.14" departLane="best" departPos="random" departSpeed="0" from="-28231434" to="28231434"/>
  <flow id="car_-55029244#0_198876042#0_000860eb" type="car" begin="0" end="3600" vehsPerHour="27.99" departLane="best" departPos="random" departSpeed="0" from="-55029244#0" to="198876042#0"/>
  <flow id="car_-55029244#0_193253427#0_000860eb" type="car" begin="0" end="3600" vehsPerHour="23.00" departLane="best" departPos="random" departSpeed="0" from="-55029244#0" to="193253427#0"/>
  <flow id="car_-55029244#0_198876043#2_000860eb" type="car" begin="0" end="3600" vehsPerHour="20.33" departLane="best" departPos="random" departSpeed="0" from="-55029244#0" to="198876043#2"/>
  <flow id="car_-55029244#0_28231434_000860eb" type="car" begin="0" end="3600" vehsPerHour="17.26" departLane="best" departPos="random" departSpeed="0" from="-55029244#0" to="28231434"/>
  <flow id="car_-55029244#0_23241821#0_000860eb" type="car" begin="0" end="3600" vehsPerHour="13.23" departLane="best" departPos="random" departSpeed="0" from="-55029244#0" to="23241821#0"/>
  <flow id="motorcycle_-55029244#0_198876042#0_000860eb" type="motorcycle" begin="0" end="3600" vehsPerHour="84.32" departLane="best" departPos="random" departSpeed="0" from="-55029244#0" to="198876042#0"/>
  <flow id="motorcycle_-55029244#0_193253427#0_000860eb" type="motorcycle" begin="0" end="3600" vehsPerHour="67.32" departLane="best" departPos="random" departSpeed="0" from="-55029244#0" to="193253427#0"/>
  <flow id="motorcycle_-55029244#0_198876043#2_000860eb" type="motorcycle" begin="0" end="3600" vehsPerHour="59.61" departLane="best" departPos="random" departSpeed="0" from="-55029244#0" to="198876043#2"/>
  <flow id="motorcycle_-55029244#0_28231434_000860eb" type="motorcycle" begin="0" end="3600" vehsPerHour="52.66" departLane="best" departPos="random" departSpeed="0" from="-55029244#0" to="28231434"/>
  <flow id="motorcycle_-55029244#0_23241821#0_000860eb" type="motorcycle" begin="0" end="3600" vehsPerHour="46.54" departLane="best" departPos="random" departSpeed="0" from="-55029244#0" to="23241821#0"/>
  <flow id="car_34241530#0_198876042#0_000860eb" type="car" begin="0" end="3600" vehsPerHour="26.23" departLane="best" departPos="random" departSpeed="0" from="34241530#0" to="198876042#0"/>
  <flow id="car_34241530#0_193253427#0_000860eb" type="car" begin="0" end="3600" vehsPerHour="23.29" departLane="best" departPos="random" departSpeed="0" from="34241530#0" to="193253427#0"/>
  <flow id="car_34241530#0_198876043#2_000860eb" type="car" begin="0" end="3600" vehsPerHour="20.90" departLane="best" departPos="random" departSpeed="0" from="34241530#0" to="198876043#2"/>
  <flow id="car_34241530#0_28231434_000860eb" type="car" begin="0" end="3600" vehsPerHour="17.25" departLane="best" departPos="random" departSpeed="0" from="34241530#0" to="28231434"/>
  <flow id="car_34241530#0_23241821#0_000860eb" type="car" begin="0" end="3600" vehsPerHour="13.27" departLane="best" departPos="random" departSpeed="0" from="34241530#0" to="23241821#0"/>
  <flow id="motorcycle_34241530#0_198876042#0_000860eb" type="motorcycle" begin="0" end="3600" vehsPerHour="78.96" departLane="best" departPos="random" departSpeed="0" from="34241530#0" to="198876042#0"/>
  <flow id="motorcycle_34241530#0_193253427#0_000860eb" type="motorcycle" begin="0" end="3600" vehsPerHour="68.69" departLane="best" departPos="random" departSpeed="0" from="34241530#0" to="193253427#0"/>
  <flow id="motorcycle_34241530#0_198876043#2_000860eb" type="motorcycle" begin="0" end="3600" vehsPerHour="61.73" departLane="best" departPos="random" departSpeed="0" from="34241530#0" to="198876043#2"/>
  <flow id="motorcycle_34241530#0_28231434_000860eb" type="motorcycle" begin="0" end="3600" vehsPerHour="53.85" departLane="best" departPos="random" departSpeed="0" from="34241530#0" to="28231434"/>
  <flow id="motorcycle_34241530#0_23241821#0_000860eb" type="motorcycle" begin="0" end="3600" vehsPerHour="46.73" departLane="best" departPos="random" departSpeed="0" from="34241530#0" to="23241821#0"/>
  <flow id="truck_34241530#0_198876042#0_000860eb" type="truck" begin="0" end="3600" vehsPerHour="11.52" departLane="best" departPos="random" departSpeed="0" from="34241530#0" to="198876042#0"/>
</routes>
