<routes>
<vType id="car" vClass="passenger" accel="2.6" decel="4.5" sigma="0.5" length="5.0" maxSpeed="13.9"/>
<vType id="motorcycle" vClass="motorcycle" accel="3.0" decel="5.0" sigma="0.5" length="2.0" maxSpeed="14.0"/>
<vType id="truck" vClass="truck" accel="1.2" decel="3.5" sigma="0.5" length="12.0" maxSpeed="10.0"/>

  <flow id="car_222682222#1_193253427#0_0007e209" type="car" begin="0" end="3600" vehsPerHour="61.35" departLane="best" departPos="random" departSpeed="0" from="222682222#1" to="193253427#0"/>
  <flow id="car_222682222#1_198876043#0_0007e209" type="car" begin="0" end="3600" vehsPerHour="48.30" departLane="best" departPos="random" departSpeed="0" from="222682222#1" to="198876043#0"/>
  <flow id="car_222682222#1_28231434_0007e209" type="car" begin="0" end="3600" vehsPerHour="49.15" departLane="best" departPos="random" departSpeed="0" from="222682222#1" to="28231434"/>
  <flow id="car_222682222#1_23241821#0_0007e209" type="car" begin="0" end="3600" vehsPerHour="40.79" departLane="best" departPos="random" departSpeed="0" from="222682222#1" to="23241821#0"/>
  <flow id="car_222682222#1_198876042#0_0007e209" type="car" begin="0" end="3600" vehsPerHour="33.86" departLane="best" departPos="random" departSpeed="0" from="222682222#1" to="198876042#0"/>
  <flow id="motorcycle_222682222#1_193253427#0_0007e209" type="motorcycle" begin="0" end="3600" vehsPerHour="174.57" departLane="best" departPos="random" departSpeed="0" from="222682222#1" to="193253427#0"/>
  <flow id="motorcycle_222682222#1_198876043#0_0007e209" type="motorcycle" begin="0" end="3600" vehsPerHour="161.36" departLane="best" departPos="random" departSpeed="0" from="222682222#1" to="198876043#0"/>
  <flow id="motorcycle_222682222#1_28231434_0007e209" type="motorcycle" begin="0" end="3600" vehsPerHour="135.96" departLane="best" departPos="random" departSpeed="0" from="222682222#1" to="28231434"/>
  <flow id="motorcycle_222682222#1_23241821#0_0007e209" type="motorcycle" begin="0" end="3600" vehsPerHour="115.92" departLane="best" departPos="random" departSpeed="0" from="222682222#1" to="23241821#0"/>
  <flow id="motorcycle_222682222#1_198876042#0_0007e209" type="motorcycle" begin="0" end="3600" vehsPerHour="98.13" departLane="best" departPos="random" departSpeed="0" from="222682222#1" to="198876042#0"/>
  <flow id="car_193253433#2_198876043#0_0007e209" type="car" begin="0" end="3600" vehsPerHour="39.32" departLane="best" departPos="random" departSpeed="0" from="193253433#2" to="198876043#0"/>
  <flow id="car_193253433#2_28231434_0007e209" type="car" begin="0" end="3600" vehsPerHour="33.91" departLane="best" departPos="random" departSpeed="0" from="193253433#2" to="28231434"/>
  <flow id="car_193253433#2_23241821#0_0007e209" type="car" begin="0" end="3600" vehsPerHour="35.18" departLane="best" departPos="random" departSpeed="0" from="193253433#2" to="23241821#0"/>
  <flow id="car_193253433#2_198876042#0_0007e209" type="car" begin="0" end="3600" vehsPerHour="27.72" departLane="best" departPos="random" departSpeed="0" from="193253433#2" to="198876042#0"/>
  <flow id="car_193253433#2_193253427#0_0007e209" type="car" begin="0" end="3600" vehsPerHour="24.68" departLane="best" departPos="random" departSpeed="0" from="193253433#2" to="193253427#0"/>
  <flow id="motorcycle_193253433#2_198876043#0_0007e209" type="motorcycle" begin="0" end="3600" vehsPerHour="110.76" departLane="best" departPos="random" departSpeed="0" from="193253433#2" to="198876043#0"/>
  <flow id="motorcycle_193253433#2_28231434_0007e209" type="motorcycle" begin="0" end="3600" vehsPerHour="105.32" departLane="best" departPos="random" departSpeed="0" from="193253433#2" to="28231434"/>
  <flow id="motorcycle_193253433#2_23241821#0_0007e209" type="motorcycle" begin="0" end="3600" vehsPerHour="96.99" departLane="best" departPos="random" departSpeed="0" from="193253433#2" to="23241821#0"/>
  <flow id="motorcycle_193253433#2_198876042#0_0007e209" type="motorcycle" begin="0" end="3600" vehsPerHour="78.20" departLane="best" departPos="random" departSpeed="0" from="193253433#2" to="198876042#0"/>
  <flow id="motorcycle_193253433#2_193253427#0_0007e209" type="motorcycle" begin="0" end="3600" vehsPerHour="66.21" departLane="best" departPos="random" departSpeed="0" from="193253433#2" to="193253427#0"/>
  <flow id="car_198876045#1_28231434_0007e209" type="car" begin="0" end="3600" vehsPerHour="33.84" departLane="best" departPos="random" departSpeed="0" from="198876045#1" to="28231434"/>
  <flow id="car_198876045#1_23241821#0_0007e209" type="car" begin="0" end="3600" vehsPerHour="31.67" departLane="best" departPos="random" departSpeed="0" from="198876045#1" to="23241821#0"/>
  <flow id="car_198876045#1_198876042#0_0007e209" type="car" begin="0" end="3600" vehsPerHour="27.32" departLane="best" departPos="random" departSpeed="0" from="198876045#1" to="198876042#0"/>
  <flow id="car_198876045#1_193253427#0_0007e209" type="car" begin="0" end="3600" vehsPerHour="24.52" departLane="best" departPos="random" departSpeed="0" from="198876045#1" to="193253427#0"/>
  <flow id="car_198876045#1_198876043#2_0007e209" type="car" begin="0" end="3600" vehsPerHour="19.53" departLane="best" departPos="random" departSpeed="0" from="198876045#1" to="198876043#2"/>
  <flow id="motorcycle_198876045#1_28231434_0007e209" type="motorcycle" begin="0" end="3600" vehsPerHour="104.97" departLane="best" departPos="random" departSpeed="0" from="198876045#1" to="28231434"/>
  <flow id="motorcycle_198876045#1_23241821#0_0007e209" type="motorcycle" begin="0" end="3600" vehsPerHour="91.18" departLane="best" departPos="random" departSpeed="0" from="198876045#1" to="23241821#0"/>
  <flow id="motorcycle_198876045#1_198876042#0_0007e209" type="motorcycle" begin="0" end="3600" vehsPerHour="79.72" departLane="best" departPos="random" departSpeed="0" from="198876045#1" to="198876042#0"/>
  <flow id="motorcycle_198876045#1_193253427#0_0007e209" type="motorcycle" begin="0" end="3600" vehsPerHour="76.09" departLane="best" departPos="random" departSpeed="0" from="198876045#1" to="193253427#0"/>
  <flow id="motorcycle_198876045#1_198876043#2_0007e209" type="motorcycle" begin="0" end="3600" vehsPerHour="67.64" departLane="best" departPos="random" departSpeed="0" from="198876045#1" to="198876043#2"/>
  <flow id="car_-28231434_23241821#0_0007e209" type="car" begin="0" end="3600" vehsPerHour="24.03" departLane="best" departPos="random" departSpeed="0" from="-28231434" to="23241821#0"/>
  <flow id="car_-28231434_198876042#0_0007e209" type="car" begin="0" end="3600" vehsPerHour="19.60" departLane="best" departPos="random" departSpeed="0" from="-28231434" to="198876042#0"/>
  <flow id="car_-28231434_193253427#0_0007e209" type="car" begin="0" end="3600" vehsPerHour="16.88" departLane="best" departPos="random" departSpeed="0" from="-28231434" to="193253427#0"/>
  <flow id="car_-28231434_198876043#2_0007e209" type="car" begin="0" end="3600" vehsPerHour="17.68" departLane="best" departPos="random" departSpeed="0" from="-28231434" to="198876043#2"/>
  <flow id="car_-28231434_28231434_0007e209" type="car" begin="0" end="3600" vehsPerHour="13.07" departLane="best" departPos="random" departSpeed="0" from="-28231434" to="28231434"/>
  <flow id="motorcycle_-28231434_23241821#0_0007e209" type="motorcycle" begin="0" end="3600" vehsPerHour="69.85" departLane="best" departPos="random" departSpeed="0" from="-28231434" to="23241821#0"/>
  <flow id="motorcycle_-28231434_198876042#0_0007e209" type="motorcycle" begin="0" end="3600" vehsPerHour="58.45" departLane="best" departPos="random" departSpeed="0" from="-28231434" to="198876042#0"/>
  <flow id="motorcycle_-28231434_193253427#0_0007e209" type="motorcycle" begin="0" end="3600" vehsPerHour="55.60" departLane="best" departPos="random" departSpeed="0" from="-28231434" to="193253427#0"/>
  <flow id="motorcycle_-28231434_198876043#2_0007e209" type="motorcycle" begin="0" end="3600" vehsPerHour="45.01" departLane="best" departPos="random" departSpeed="0" from="-28231434" to="198876043#2"/>
  <flow id="motorcycle_-28231434_28231434_0007e209" type="motorcycle" begin="0" end="3600" vehsPerHour="42.00" departLane="best" departPos="random" departSpeed="0" from="-28231434" to="28231434"/>
  <flow id="car_-55029244#0_198876042#0_0007e209" type="car" begin="0" end="3600" vehsPerHour="25.92" departLane="best" departPos="random" departSpeed="0" from="-55029244#0" to="198876042#0"/>
  <flow id="car_-55029244#0_193253427#0_0007e209" type="car" begin="0" end="3600" vehsPerHour="22.46" departLane="best" departPos="random" departSpeed="0" from="-55029244#0" to="193253427#0"/>
  <flow id="car_-55029244#0_198876043#2_0007e209" type="car" begin="0" end="3600" vehsPerHour="20.31" departLane="best" departPos="random" departSpeed="0" from="-55029244#0" to="198876043#2"/>
  <flow id="car_-55029244#0_28231434_0007e209" type="car" begin="0" end="3600" vehsPerHour="17.10" departLane="best" departPos="random" departSpeed="0" from="-55029244#0" to="28231434"/>
  <flow id="car_-55029244#0_23241821#0_0007e209" type="car" begin="0" end="3600" vehsPerHour="13.03" departLane="best" departPos="random" departSpeed="0" from="-55029244#0" to="23241821#0"/>
  <flow id="motorcycle_-55029244#0_198876042#0_0007e209" type="motorcycle" begin="0" end="3600" vehsPerHour="82.66" departLane="best" departPos="random" departSpeed="0" from="-55029244#0" to="198876042#0"/>
  <flow id="motorcycle_-55029244#0_193253427#0_0007e209" type="motorcycle" begin="0" end="3600" vehsPerHour="66.73" departLane="best" departPos="random" departSpeed="0" from="-55029244#0" to="193253427#0"/>
  <flow id="motorcycle_-55029244#0_198876043#2_0007e209" type="motorcycle" begin="0" end="3600" vehsPerHour="59.54" departLane="best" departPos="random" departSpeed="0" from="-55029244#0" to="198876043#2"/>
  <flow id="motorcycle_-55029244#0_28231434_0007e209" type="motorcycle" begin="0" end="3600" vehsPerHour="55.94" departLane="best" departPos="random" departSpeed="0" from="-55029244#0" to="28231434"/>
  <flow id="motorcycle_-55029244#0_23241821#0_0007e209" type="motorcycle" begin="0" end="3600" vehsPerHour="48.25" departLane="best" departPos="random" departSpeed="0" from="-55029244#0" to="23241821#0"/>
  <flow id="car_34241530#0_198876042#0_0007e209" type="car" begin="0" end="3600" vehsPerHour="26.30" departLane="best" departPos="random" departSpeed="0" from="34241530#0" to="198876042#0"/>
  <flow id="car_34241530#0_193253427#0_0007e209" type="car" begin="0" end="3600" vehsPerHour="23.50" departLane="best" departPos="random" departSpeed="0" from="34241530#0" to="193253427#0"/>
  <flow id="car_34241530#0_198876043#2_0007e209" type="car" begin="0" end="3600" vehsPerHour="20.44" departLane="best" departPos="random" departSpeed="0" from="34241530#0" to="198876043#2"/>
  <flow id="car_34241530#0_28231434_0007e209" type="car" begin="0" end="3600" vehsPerHour="17.60" departLane="best" departPos="random" departSpeed="0" from="34241530#0" to="28231434"/>
  <flow id="car_34241530#0_23241821#0_0007e209" type="car" begin="0" end="3600" vehsPerHour="13.16" departLane="best" departPos="random" departSpeed="0" from="34241530#0" to="23241821#0"/>
  <flow id="motorcycle_34241530#0_198876042#0_0007e209" type="motorcycle" begin="0" end="3600" vehsPerHour="83.86" departLane="best" departPos="random" departSpeed="0" from="34241530#0" to="198876042#0"/>
  <flow id="motorcycle_34241530#0_193253427#0_0007e209" type="motorcycle" begin="0" end="3600" vehsPerHour="65.40" departLane="best" departPos="random" departSpeed="0" from="34241530#0" to="193253427#0"/>
  <flow id="motorcycle_34241530#0_198876043#2_0007e209" type="motorcycle" begin="0" end="3600" vehsPerHour="61.97" departLane="best" departPos="random" departSpeed="0" from="34241530#0" to="198876043#2"/>
  <flow id="motorcycle_34241530#0_28231434_0007e209" type="motorcycle" begin="0" end="3600" vehsPerHour="52.48" departLane="best" departPos="random" departSpeed="0" from="34241530#0" to="28231434"/>
  <flow id="motorcycle_34241530#0_23241821#0_0007e209" type="motorcycle" begin="0" end="3600" vehsPerHour="44.98" departLane="best" departPos="random" departSpeed="0" from="34241530#0" to="23241821#0"/>
  <flow id="truck_34241530#0_198876042#0_0007e209" type="truck" begin="0" end="3600" vehsPerHour="11.56" departLane="best" departPos="random" departSpeed="0" from="34241530#0" to="198876042#0"/>
</routes>
