<routes>
<vType id="car" vClass="passenger" accel="2.6" decel="4.5" sigma="0.5" length="5.0" maxSpeed="13.9"/>
<vType id="motorcycle" vClass="motorcycle" accel="3.0" decel="5.0" sigma="0.5" length="2.0" maxSpeed="14.0"/>
<vType id="truck" vClass="truck" accel="1.2" decel="3.5" sigma="0.5" length="12.0" maxSpeed="10.0"/>

  <flow id="car_222682222#1_193253427#0_00028c0e" type="car" begin="0" end="3600" vehsPerHour="58.43" departLane="best" departPos="random" departSpeed="0" from="222682222#1" to="193253427#0"/>
  <flow id="car_222682222#1_198876043#0_00028c0e" type="car" begin="0" end="3600" vehsPerHour="52.37" departLane="best" departPos="random" departSpeed="0" from="222682222#1" to="198876043#0"/>
  <flow id="car_222682222#1_28231434_00028c0e" type="car" begin="0" end="3600" vehsPerHour="52.68" departLane="best" departPos="random" departSpeed="0" from="222682222#1" to="28231434"/>
  <flow id="car_222682222#1_23241821#0_00028c0e" type="car" begin="0" end="3600" vehsPerHour="40.47" departLane="best" departPos="random" departSpeed="0" from="222682222#1" to="23241821#0"/>
  <flow id="car_222682222#1_198876042#0_00028c0e" type="car" begin="0" end="3600" vehsPerHour="32.39" departLane="best" departPos="random" departSpeed="0" from="222682222#1" to="198876042#0"/>
  <flow id="motorcycle_222682222#1_193253427#0_00028c0e" type="motorcycle" begin="0" end="3600" vehsPerHour="179.83" departLane="best" departPos="random" departSpeed="0" from="222682222#1" to="193253427#0"/>
  <flow id="motorcycle_222682222#1_198876043#0_00028c0e" type="motorcycle" begin="0" end="3600" vehsPerHour="152.73" departLane="best" departPos="random" departSpeed="0" from="222682222#1" to="198876043#0"/>
  <flow id="motorcycle_222682222#1_28231434_00028c0e" type="motorcycle" begin="0" end="3600" vehsPerHour="140.12" departLane="best" departPos="random" departSpeed="0" from="222682222#1" to="28231434"/>
  <flow id="motorcycle_222682222#1_23241821#0_00028c0e" type="motorcycle" begin="0" end="3600" vehsPerHour="112.15" departLane="best" departPos="random" departSpeed="0" from="222682222#1" to="23241821#0"/>
  <flow id="motorcycle_222682222#1_198876042#0_00028c0e" type="motorcycle" begin="0" end="3600" vehsPerHour="101.10" departLane="best" departPos="random" departSpeed="0" from="222682222#1" to="198876042#0"/>
  <flow id="car_193253433#2_198876043#0_00028c0e" type="car" begin="0" end="3600" vehsPerHour="39.01" departLane="best" departPos="random" departSpeed="0" from="193253433#2" to="198876043#0"/>
  <flow id="car_193253433#2_28231434_00028c0e" type="car" begin="0" end="3600" vehsPerHour="32.70" departLane="best" departPos="random" departSpeed="0" from="193253433#2" to="28231434"/>
  <flow id="car_193253433#2_23241821#0_00028c0e" type="car" begin="0" end="3600" vehsPerHour="34.22" departLane="best" departPos="random" departSpeed="0" from="193253433#2" to="23241821#0"/>
  <flow id="car_193253433#2_198876042#0_00028c0e" type="car" begin="0" end="3600" vehsPerHour="27.79" departLane="best" departPos="random" departSpeed="0" from="193253433#2" to="198876042#0"/>
  <flow id="car_193253433#2_193253427#0_00028c0e" type="car" begin="0" end="3600" vehsPerHour="24.33" departLane="best" departPos="random" departSpeed="0" from="193253433#2" to="193253427#0"/>
  <flow id="motorcycle_193253433#2_198876043#0_00028c0e" type="motorcycle" begin="0" end="3600" vehsPerHour="114.15" departLane="best" departPos="random" departSpeed="0" from="193253433#2" to="198876043#0"/>
  <flow id="motorcycle_193253433#2_28231434_00028c0e" type="motorcycle" begin="0" end="3600" vehsPerHour="103.09" departLane="best" departPos="random" departSpeed="0" from="193253433#2" to="28231434"/>
  <flow id="motorcycle_193253433#2_23241821#0_00028c0e" type="motorcycle" begin="0" end="3600" vehsPerHour="93.06" departLane="best" departPos="random" departSpeed="0" from="193253433#2" to="23241821#0"/>
  <flow id="motorcycle_193253433#2_198876042#0_00028c0e" type="motorcycle" begin="0" end="3600" vehsPerHour="82.60" departLane="best" departPos="random" departSpeed="0" from="193253433#2" to="198876042#0"/>
  <flow id="motorcycle_193253433#2_193253427#0_00028c0e" type="motorcycle" begin="0" end="3600" vehsPerHour="65.43" departLane="best" departPos="random" departSpeed="0" from="193253433#2" to="193253427#0"/>
  <flow id="car_198876045#1_28231434_00028c0e" type="car" begin="0" end="3600" vehsPerHour="34.98" departLane="best" departPos="random" departSpeed="0" from="198876045#1" to="28231434"/>
  <flow id="car_198876045#1_23241821#0_00028c0e" type="car" begin="0" end="3600" vehsPerHour="30.23" departLane="best" departPos="random" departSpeed="0" from="198876045#1" to="23241821#0"/>
  <flow id="car_198876045#1_198876042#0_00028c0e" type="car" begin="0" end="3600" vehsPerHour="26.48" departLane="best" departPos="random" departSpeed="0" from="198876045#1" to="198876042#0"/>
  <flow id="car_198876045#1_193253427#0_00028c0e" type="car" begin="0" end="3600" vehsPerHour="23.35" departLane="best" departPos="random" departSpeed="0" from="198876045#1" to="193253427#0"/>
  <flow id="car_198876045#1_198876043#2_00028c0e" type="car" begin="0" end="3600" vehsPerHour="21.15" departLane="best" departPos="random" departSpeed="0" from="198876045#1" to="198876043#2"/>
  <flow id="motorcycle_198876045#1_28231434_00028c0e" type="motorcycle" begin="0" end="3600" vehsPerHour="98.36" departLane="best" departPos="random" departSpeed="0" from="198876045#1" to="28231434"/>
  <flow id="motorcycle_198876045#1_23241821#0_00028c0e" type="motorcycle" begin="0" end="3600" vehsPerHour="88.13" departLane="best" departPos="random" departSpeed="0" from="198876045#1" to="23241821#0"/>
  <flow id="motorcycle_198876045#1_198876042#0_00028c0e" type="motorcycle" begin="0" end="3600" vehsPerHour="83.39" departLane="best" departPos="random" departSpeed="0" from="198876045#1" to="198876042#0"/>
  <flow id="motorcycle_198876045#1_193253427#0_00028c0e" type="motorcycle" begin="0" end="3600" vehsPerHour="74.77" departLane="best" departPos="random" departSpeed="0" from="198876045#1" to="193253427#0"/>
  <flow id="motorcycle_198876045#1_198876043#2_00028c0e" type="motorcycle" begin="0" end="3600" vehsPerHour="66.83" departLane="best" departPos="random" departSpeed="0" from="198876045#1" to="198876043#2"/>
  <flow id="car_-28231434_23241821#0_00028c0e" type="car" begin="0" end="3600" vehsPerHour="23.31" departLane="best" departPos="random" departSpeed="0" from="-28231434" to="23241821#0"/>
  <flow id="car_-28231434_198876042#0_00028c0e" type="car" begin="0" end="3600" vehsPerHour="20.47" departLane="best" departPos="random" departSpeed="0" from="-28231434" to="198876042#0"/>
  <flow id="car_-28231434_193253427#0_00028c0e" type="car" begin="0" end="3600" vehsPerHour="16.48" departLane="best" departPos="random" departSpeed="0" from="-28231434" to="193253427#0"/>
  <flow id="car_-28231434_198876043#2_00028c0e" type="car" begin="0" end="3600" vehsPerHour="16.14" departLane="best" departPos="random" departSpeed="0" from="-28231434" to="198876043#2"/>
  <flow id="car_-28231434_28231434_00028c0e" type="car" begin="0" end="3600" vehsPerHour="14.09" departLane="best" departPos="random" departSpeed="0" from="-28231434" to="28231434"/>
  <flow id="motorcycle_-28231434_23241821#0_00028c0e" type="motorcycle" begin="0" end="3600" vehsPerHour="65.85" departLane="best" departPos="random" departSpeed="0" from="-28231434" to="23241821#0"/>
  <flow id="motorcycle_-28231434_198876042#0_00028c0e" type="motorcycle" begin="0" end="3600" vehsPerHour="63.61" departLane="best" departPos="random" departSpeed="0" from="-28231434" to="198876042#0"/>
  <flow id="motorcycle_-28231434_193253427#0_00028c0e" type="motorcycle" begin="0" end="3600" vehsPerHour="52.76" departLane="best" departPos="random" departSpeed="0" from="-28231434" to="193253427#0"/>
  <flow id="motorcycle_-28231434_198876043#2_00028c0e" type="motorcycle" begin="0" end="3600" vehsPerHour="46.66" departLane="best" departPos="random" departSpeed="0" from="-28231434" to="198876043#2"/>
  <flow id="motorcycle_-28231434_28231434_00028c0e" type="motorcycle" begin="0" end="3600" vehsPerHour="40.15" departLane="best" departPos="random" departSpeed="0" from="-28231434" to="28231434"/>
  <flow id="car_-55029244#0_198876042#0_00028c0e" type="car" begin="0" end="3600" vehsPerHour="28.10" departLane="best" departPos="random" departSpeed="0" from="-55029244#0" to="198876042#0"/>
  <flow id="car_-55029244#0_193253427#0_00028c0e" type="car" begin="0" end="3600" vehsPerHour="23.26" departLane="best" departPos="random" departSpeed="0" from="-55029244#0" to="193253427#0"/>
  <flow id="car_-55029244#0_198876043#2_00028c0e" type="car" begin="0" end="3600" vehsPerHour="19.36" departLane="best" departPos="random" departSpeed="0" from="-55029244#0" to="198876043#2"/>
  <flow id="car_-55029244#0_28231434_00028c0e" type="car" begin="0" end="3600" vehsPerHour="17.28" departLane="best" departPos="random" departSpeed="0" from="-55029244#0" to="28231434"/>
  <flow id="car_-55029244#0_23241821#0_00028c0e" type="car" begin="0" end="3600" vehsPerHour="13.68" departLane="best" departPos="random" departSpeed="0" from="-55029244#0" to="23241821#0"/>
  <flow id="motorcycle_-55029244#0_198876042#0_00028c0e" type="motorcycle" begin="0" end="3600" vehsPerHour="77.18" departLane="best" departPos="random" departSpeed="0" from="-55029244#0" to="198876042#0"/>
  <flow id="motorcycle_-55029244#0_193253427#0_00028c0e" type="motorcycle" begin="0" end="3600" vehsPerHour="67.18" departLane="best" departPos="random" departSpeed="0" from="-55029244#0" to="193253427#0"/>
  <flow id="motorcycle_-55029244#0_198876043#2_00028c0e" type="motorcycle" begin="0" end="3600" vehsPerHour="60.52" departLane="best" departPos="random" departSpeed="0" from="-55029244#0" to="198876043#2"/>
  <flow id="motorcycle_-55029244#0_28231434_00028c0e" type="motorcycle" begin="0" end="3600" vehsPerHour="56.16" departLane="best" departPos="random" departSpeed="0" from="-55029244#0" to="28231434"/>
  <flow id="motorcycle_-55029244#0_23241821#0_00028c0e" type="motorcycle" begin="0" end="3600" vehsPerHour="46.30" departLane="best" departPos="random" departSpeed="0" from="-55029244#0" to="23241821#0"/>
  <flow id="car_34241530#0_198876042#0_00028c0e" type="car" begin="0" end="3600" vehsPerHour="28.28" departLane="best" departPos="random" departSpeed="0" from="34241530#0" to="198876042#0"/>
  <flow id="car_34241530#0_193253427#0_00028c0e" type="car" begin="0" end="3600" vehsPerHour="24.75" departLane="best" departPos="random" departSpeed="0" from="34241530#0" to="193253427#0"/>
  <flow id="car_34241530#0_198876043#2_00028c0e" type="car" begin="0" end="3600" vehsPerHour="19.24" departLane="best" departPos="random" departSpeed="0" from="34241530#0" to="198876043#2"/>
  <flow id="car_34241530#0_28231434_00028c0e" type="car" begin="0" end="3600" vehsPerHour="17.25" departLane="best" departPos="random" departSpeed="0" from="34241530#0" to="28231434"/>
  <flow id="car_34241530#0_23241821#0_00028c0e" type="car" begin="0" end="3600" vehsPerHour="12.92" departLane="best" departPos="random" departSpeed="0" from="34241530#0" to="23241821#0"/>
  <flow id="motorcycle_34241530#0_198876042#0_00028c0e" type="motorcycle" begin="0" end="3600" vehsPerHour="78.70" departLane="best" departPos="random" departSpeed="0" from="34241530#0" to="198876042#0"/>
  <flow id="motorcycle_34241530#0_193253427#0_00028c0e" type="motorcycle" begin="0" end="3600" vehsPerHour="66.98" departLane="best" departPos="random" departSpeed="0" from="34241530#0" to="193253427#0"/>
  <flow id="motorcycle_34241530#0_198876043#2_00028c0e" type="motorcycle" begin="0" end="3600" vehsPerHour="61.91" departLane="best" departPos="random" departSpeed="0" from="34241530#0" to="198876043#2"/>
  <flow id="motorcycle_34241530#0_28231434_00028c0e" type="motorcycle" begin="0" end="3600" vehsPerHour="52.43" departLane="best" departPos="random" departSpeed="0" from="34241530#0" to="28231434"/>
  <flow id="motorcycle_34241530#0_23241821#0_00028c0e" type="motorcycle" begin="0" end="3600" vehsPerHour="45.48" departLane="best" departPos="random" departSpeed="0" from="34241530#0" to="23241821#0"/>
  <flow id="truck_34241530#0_198876042#0_00028c0e" type="truck" begin="0" end="3600" vehsPerHour="11.33" departLane="best" departPos="random" departSpeed="0" from="34241530#0" to="198876042#0"/>
</routes>
