<routes>
<vType id="car" vClass="passenger" accel="2.6" decel="4.5" sigma="0.5" length="5.0" maxSpeed="13.9"/>
<vType id="motorcycle" vClass="motorcycle" accel="3.0" decel="5.0" sigma="0.5" length="2.0" maxSpeed="14.0"/>
<vType id="truck" vClass="truck" accel="1.2" decel="3.5" sigma="0.5" length="12.0" maxSpeed="10.0"/>

  <flow id="car_222682222#1_193253427#0_00046ed8" type="car" begin="0" end="3600" vehsPerHour="59.59" departLane="best" departPos="random" departSpeed="0" from="222682222#1" to="193253427#0"/>
  <flow id="car_222682222#1_198876043#0_00046ed8" type="car" begin="0" end="3600" vehsPerHour="51.00" departLane="best" departPos="random" departSpeed="0" from="222682222#1" to="198876043#0"/>
  <flow id="car_222682222#1_28231434_00046ed8" type="car" begin="0" end="3600" vehsPerHour="50.36" departLane="best" departPos="random" departSpeed="0" from="222682222#1" to="28231434"/>
  <flow id="car_222682222#1_23241821#0_00046ed8" type="car" begin="0" end="3600" vehsPerHour="42.02" departLane="best" departPos="random" departSpeed="0" from="222682222#1" to="23241821#0"/>
  <flow id="car_222682222#1_198876042#0_00046ed8" type="car" begin="0" end="3600" vehsPerHour="32.91" departLane="best" departPos="random" departSpeed="0" from="222682222#1" to="198876042#0"/>
  <flow id="motorcycle_222682222#1_193253427#0_00046ed8" type="motorcycle" begin="0" end="3600" vehsPerHour="166.68" departLane="best" departPos="random" departSpeed="0" from="222682222#1" to="193253427#0"/>
  <flow id="motorcycle_222682222#1_198876043#0_00046ed8" type="motorcycle" begin="0" end="3600" vehsPerHour="157.06" departLane="best" departPos="random" departSpeed="0" from="222682222#1" to="198876043#0"/>
  <flow id="motorcycle_222682222#1_28231434_00046ed8" type="motorcycle" begin="0" end="3600" vehsPerHour="146.32" departLane="best" departPos="random" departSpeed="0" from="222682222#1" to="28231434"/>
  <flow id="motorcycle_222682222#1_23241821#0_00046ed8" type="motorcycle" begin="0" end="3600" vehsPerHour="109.49" departLane="best" departPos="random" departSpeed="0" from="222682222#1" to="23241821#0"/>
  <flow id="motorcycle_222682222#1_198876042#0_00046ed8" type="motorcycle" begin="0" end="3600" vehsPerHour="98.63" departLane="best" departPos="random" departSpeed="0" from="222682222#1" to="198876042#0"/>
  <flow id="car_193253433#2_198876043#0_00046ed8" type="car" begin="0" end="3600" vehsPerHour="39.29" departLane="best" departPos="random" departSpeed="0" from="193253433#2" to="198876043#0"/>
  <flow id="car_193253433#2_28231434_00046ed8" type="car" begin="0" end="3600" vehsPerHour="33.83" departLane="best" departPos="random" departSpeed="0" from="193253433#2" to="28231434"/>
  <flow id="car_193253433#2_23241821#0_00046ed8" type="car" begin="0" end="3600" vehsPerHour="34.39" departLane="best" departPos="random" departSpeed="0" from="193253433#2" to="23241821#0"/>
  <flow id="car_193253433#2_198876042#0_00046ed8" type="car" begin="0" end="3600" vehsPerHour="27.74" departLane="best" departPos="random" departSpeed="0" from="193253433#2" to="198876042#0"/>
  <flow id="car_193253433#2_193253427#0_00046ed8" type="car" begin="0" end="3600" vehsPerHour="23.85" departLane="best" departPos="random" departSpeed="0" from="193253433#2" to="193253427#0"/>
  <flow id="motorcycle_193253433#2_198876043#0_00046ed8" type="motorcycle" begin="0" end="3600" vehsPerHour="111.69" departLane="best" departPos="random" departSpeed="0" from="193253433#2" to="198876043#0"/>
  <flow id="motorcycle_193253433#2_28231434_00046ed8" type="motorcycle" begin="0" end="3600" vehsPerHour="103.96" departLane="best" departPos="random" departSpeed="0" from="193253433#2" to="28231434"/>
  <flow id="motorcycle_193253433#2_23241821#0_00046ed8" type="motorcycle" begin="0" end="3600" vehsPerHour="94.87" departLane="best" departPos="random" departSpeed="0" from="193253433#2" to="23241821#0"/>
  <flow id="motorcycle_193253433#2_198876042#0_00046ed8" type="motorcycle" begin="0" end="3600" vehsPerHour="82.64" departLane="best" departPos="random" departSpeed="0" from="193253433#2" to="198876042#0"/>
  <flow id="motorcycle_193253433#2_193253427#0_00046ed8" type="motorcycle" begin="0" end="3600" vehsPerHour="66.93" departLane="best" departPos="random" departSpeed="0" from="193253433#2" to="193253427#0"/>
  <flow id="car_198876045#1_28231434_00046ed8" type="car" begin="0" end="3600" vehsPerHour="35.27" departLane="best" departPos="random" departSpeed="0" from="198876045#1" to="28231434"/>
  <flow id="car_198876045#1_23241821#0_00046ed8" type="car" begin="0" end="3600" vehsPerHour="30.24" departLane="best" departPos="random" departSpeed="0" from="198876045#1" to="23241821#0"/>
  <flow id="car_198876045#1_198876042#0_00046ed8" type="car" begin="0" end="3600" vehsPerHour="27.69" departLane="best" departPos="random" departSpeed="0" from="198876045#1" to="198876042#0"/>
  <flow id="car_198876045#1_193253427#0_00046ed8" type="car" begin="0" end="3600" vehsPerHour="24.41" departLane="best" departPos="random" departSpeed="0" from="198876045#1" to="193253427#0"/>
  <flow id="car_198876045#1_198876043#2_00046ed8" type="car" begin="0" end="3600" vehsPerHour="21.14" departLane="best" departPos="random" departSpeed="0" from="198876045#1" to="198876043#2"/>
  <flow id="motorcycle_198876045#1_28231434_00046ed8" type="motorcycle" begin="0" end="3600" vehsPerHour="100.01" departLane="best" departPos="random" departSpeed="0" from="198876045#1" to="28231434"/>
  <flow id="motorcycle_198876045#1_23241821#0_00046ed8" type="motorcycle" begin="0" end="3600" vehsPerHour="85.53" departLane="best" departPos="random" departSpeed="0" from="198876045#1" to="23241821#0"/>
  <flow id="motorcycle_198876045#1_198876042#0_00046ed8" type="motorcycle" begin="0" end="3600" vehsPerHour="78.37" departLane="best" departPos="random" departSpeed="0" from="198876045#1" to="198876042#0"/>
  <flow id="motorcycle_198876045#1_193253427#0_00046ed8" type="motorcycle" begin="0" end="3600" vehsPerHour="71.20" departLane="best" departPos="random" departSpeed="0" from="198876045#1" to="193253427#0"/>
  <flow id="motorcycle_198876045#1_198876043#2_00046ed8" type="motorcycle" begin="0" end="3600" vehsPerHour="69.27" departLane="best" departPos="random" departSpeed="0" from="198876045#1" to="198876043#2"/>
  <flow id="car_-28231434_23241821#0_00046ed8" type="car" begin="0" end="3600" vehsPerHour="23.55" departLane="best" departPos="random" departSpeed="0" from="-28231434" to="23241821#0"/>
  <flow id="car_-28231434_198876042#0_00046ed8" type="car" begin="0" end="3600" vehsPerHour="19.39" departLane="best" departPos="random" departSpeed="0" from="-28231434" to="198876042#0"/>
  <flow id="car_-28231434_193253427#0_00046ed8" type="car" begin="0" end="3600" vehsPerHour="16.49" departLane="best" departPos="random" departSpeed="0" from="-28231434" to="193253427#0"/>
  <flow id="car_-28231434_198876043#2_00046ed8" type="car" begin="0" end="3600" vehsPerHour="16.12" departLane="best" departPos="random" departSpeed="0" from="-28231434" to="198876043#2"/>
  <flow id="car_-28231434_28231434_00046ed8" type="car" begin="0" end="3600" vehsPerHour="13.48" departLane="best" departPos="random" departSpeed="0" from="-28231434" to="28231434"/>
  <flow id="motorcycle_-28231434_23241821#0_00046ed8" type="motorcycle" begin="0" end="3600" vehsPerHour="69.93" departLane="best" departPos="random" departSpeed="0" from="-28231434" to="23241821#0"/>
  <flow id="motorcycle_-28231434_198876042#0_00046ed8" type="motorcycle" begin="0" end="3600" vehsPerHour="63.21" departLane="best" departPos="random" departSpeed="0" from="-28231434" to="198876042#0"/>
  <flow id="motorcycle_-28231434_193253427#0_00046ed8" type="motorcycle" begin="0" end="3600" vehsPerHour="52.42" departLane="best" departPos="random" departSpeed="0" from="-28231434" to="193253427#0"/>
  <flow id="motorcycle_-28231434_198876043#2_00046ed8" type="motorcycle" begin="0" end="3600" vehsPerHour="47.14" departLane="best" departPos="random" departSpeed="0" from="-28231434" to="198876043#2"/>
  <flow id="motorcycle_-28231434_28231434_00046ed8" type="motorcycle" begin="0" end="3600" vehsPerHour="42.29" departLane="best" departPos="random" departSpeed="0" from="-28231434" to="28231434"/>
  <flow id="car_-55029244#0_198876042#0_00046ed8" type="car" begin="0" end="3600" vehsPerHour="27.48" departLane="best" departPos="random" departSpeed="0" from="-55029244#0" to="198876042#0"/>
  <flow id="car_-55029244#0_193253427#0_00046ed8" type="car" begin="0" end="3600" vehsPerHour="23.38" departLane="best" departPos="random" departSpeed="0" from="-55029244#0" to="193253427#0"/>
  <flow id="car_-55029244#0_198876043#2_00046ed8" type="car" begin="0" end="3600" vehsPerHour="20.90" departLane="best" departPos="random" departSpeed="0" from="-55029244#0" to="198876043#2"/>
  <flow id="car_-55029244#0_28231434_00046ed8" type="car" begin="0" end="3600" vehsPerHour="17.35" departLane="best" departPos="random" departSpeed="0" from="-55029244#0" to="28231434"/>
  <flow id="car_-55029244#0_23241821#0_00046ed8" type="car" begin="0" end="3600" vehsPerHour="13.68" departLane="best" departPos="random" departSpeed="0" from="-55029244#0" to="23241821#0"/>
  <flow id="motorcycle_-55029244#0_198876042#0_00046ed8" type="motorcycle" begin="0" end="3600" vehsPerHour="82.51" departLane="best" departPos="random" departSpeed="0" from="-55029244#0" to="198876042#0"/>
  <flow id="motorcycle_-55029244#0_193253427#0_00046ed8" type="motorcycle" begin="0" end="3600" vehsPerHour="69.83" departLane="best" departPos="random" departSpeed="0" from="-55029244#0" to="193253427#0"/>
  <flow id="motorcycle_-55029244#0_198876043#2_00046ed8" type="motorcycle" begin="0" end="3600" vehsPerHour="60.01" departLane="best" departPos="random" departSpeed="0" from="-55029244#0" to="198876043#2"/>
  <flow id="motorcycle_-55029244#0_28231434_00046ed8" type="motorcycle" begin="0" end="3600" vehsPerHour="54.93" departLane="best" departPos="random" departSpeed="0" from="-55029244#0" to="28231434"/>
  <flow id="motorcycle_-55029244#0_23241821#0_00046ed8" type="motorcycle" begin="0" end="3600" vehsPerHour="48.01" departLane="best" departPos="random" departSpeed="0" from="-55029244#0" to="23241821#0"/>
  <flow id="car_34241530#0_198876042#0_00046ed8" type="car" begin="0" end="3600" vehsPerHour="26.15" departLane="best" departPos="random" departSpeed="0" from="34241530#0" to="198876042#0"/>
  <flow id="car_34241530#0_193253427#0_00046ed8" type="car" begin="0" end="3600" vehsPerHour="23.49" departLane="best" departPos="random" departSpeed="0" from="34241530#0" to="193253427#0"/>
  <flow id="car_34241530#0_198876043#2_00046ed8" type="car" begin="0" end="3600" vehsPerHour="20.34" departLane="best" departPos="random" departSpeed="0" from="34241530#0" to="198876043#2"/>
  <flow id="car_34241530#0_28231434_00046ed8" type="car" begin="0" end="3600" vehsPerHour="16.73" departLane="best" departPos="random" departSpeed="0" from="34241530#0" to="28231434"/>
  <flow id="car_34241530#0_23241821#0_00046ed8" type="car" begin="0" end="3600" vehsPerHour="13.91" departLane="best" departPos="random" departSpeed="0" from="34241530#0" to="23241821#0"/>
  <flow id="motorcycle_34241530#0_198876042#0_00046ed8" type="motorcycle" begin="0" end="3600" vehsPerHour="81.11" departLane="best" departPos="random" departSpeed="0" from="34241530#0" to="198876042#0"/>
  <flow id="motorcycle_34241530#0_193253427#0_00046ed8" type="motorcycle" begin="0" end="3600" vehsPerHour="68.73" departLane="best" departPos="random" departSpeed="0" from="34241530#0" to="193253427#0"/>
  <flow id="motorcycle_34241530#0_198876043#2_00046ed8" type="motorcycle" begin="0" end="3600" vehsPerHour="60.95" departLane="best" departPos="random" departSpeed="0" from="34241530#0" to="198876043#2"/>
  <flow id="motorcycle_34241530#0_28231434_00046ed8" type="motorcycle" begin="0" end="3600" vehsPerHour="56.31" departLane="best" departPos="random" departSpeed="0" from="34241530#0" to="28231434"/>
  <flow id="motorcycle_34241530#0_23241821#0_00046ed8" type="motorcycle" begin="0" end="3600" vehsPerHour="46.60" departLane="best" departPos="random" departSpeed="0" from="34241530#0" to="23241821#0"/>
  <flow id="truck_34241530#0_198876042#0_00046ed8" type="truck" begin="0" end="3600" vehsPerHour="11.51" departLane="best" departPos="random" departSpeed="0" from="34241530#0" to="198876042#0"/>
</routes>
