<routes>
<vType id="car" vClass="passenger" accel="2.6" decel="4.5" sigma="0.5" length="5.0" maxSpeed="13.9"/>
<vType id="motorcycle" vClass="motorcycle" accel="3.0" decel="5.0" sigma="0.5" length="2.0" maxSpeed="14.0"/>
<vType id="truck" vClass="truck" accel="1.2" decel="3.5" sigma="0.5" length="12.0" maxSpeed="10.0"/>

  <flow id="car_222682222#1_193253427#0_000d6a4a" type="car" begin="0" end="3600" vehsPerHour="63.28" departLane="best" departPos="random" departSpeed="0" from="222682222#1" to="193253427#0"/>
  <flow id="car_222682222#1_198876043#0_000d6a4a" type="car" begin="0" end="3600" vehsPerHour="50.21" departLane="best" departPos="random" departSpeed="0" from="222682222#1" to="198876043#0"/>
  <flow id="car_222682222#1_28231434_000d6a4a" type="car" begin="0" end="3600" vehsPerHour="51.61" departLane="best" departPos="random" departSpeed="0" from="222682222#1" to="28231434"/>
  <flow id="car_222682222#1_23241821#0_000d6a4a" type="car" begin="0" end="3600" vehsPerHour="39.55" departLane="best" departPos="random" departSpeed="0" from="222682222#1" to="23241821#0"/>
  <flow id="car_222682222#1_198876042#0_000d6a4a" type="car" begin="0" end="3600" vehsPerHour="34.07" departLane="best" departPos="random" departSpeed="0" from="222682222#1" to="198876042#0"/>
  <flow id="motorcycle_222682222#1_193253427#0_000d6a4a" type="motorcycle" begin="0" end="3600" vehsPerHour="182.05" departLane="best" departPos="random" departSpeed="0" from="222682222#1" to="193253427#0"/>
  <flow id="motorcycle_222682222#1_198876043#0_000d6a4a" type="motorcycle" begin="0" end="3600" vehsPerHour="151.72" departLane="best" departPos="random" departSpeed="0" from="222682222#1" to="198876043#0"/>
  <flow id="motorcycle_222682222#1_28231434_000d6a4a" type="motorcycle" begin="0" end="3600" vehsPerHour="145.61" departLane="best" departPos="random" departSpeed="0" from="222682222#1" to="28231434"/>
  <flow id="motorcycle_222682222#1_23241821#0_000d6a4a" type="motorcycle" begin="0" end="3600" vehsPerHour="114.87" departLane="best" departPos="random" departSpeed="0" from="222682222#1" to="23241821#0"/>
  <flow id="motorcycle_222682222#1_198876042#0_000d6a4a" type="motorcycle" begin="0" end="3600" vehsPerHour="98.23" departLane="best" departPos="random" departSpeed="0" from="222682222#1" to="198876042#0"/>
  <flow id="car_193253433#2_198876043#0_000d6a4a" type="car" begin="0" end="3600" vehsPerHour="38.80" departLane="best" departPos="random" departSpeed="0" from="193253433#2" to="198876043#0"/>
  <flow id="car_193253433#2_28231434_000d6a4a" type="car" begin="0" end="3600" vehsPerHour="34.26" departLane="best" departPos="random" departSpeed="0" from="193253433#2" to="28231434"/>
  <flow id="car_193253433#2_23241821#0_000d6a4a" type="car" begin="0" end="3600" vehsPerHour="32.03" departLane="best" departPos="random" departSpeed="0" from="193253433#2" to="23241821#0"/>
  <flow id="car_193253433#2_198876042#0_000d6a4a" type="car" begin="0" end="3600" vehsPerHour="27.82" departLane="best" departPos="random" departSpeed="0" from="193253433#2" to="198876042#0"/>
  <flow id="car_193253433#2_193253427#0_000d6a4a" type="car" begin="0" end="3600" vehsPerHour="24.28" departLane="best" departPos="random" departSpeed="0" from="193253433#2" to="193253427#0"/>
  <flow id="motorcycle_193253433#2_198876043#0_000d6a4a" type="motorcycle" begin="0" end="3600" vehsPerHour="110.45" departLane="best" departPos="random" departSpeed="0" from="193253433#2" to="198876043#0"/>
  <flow id="motorcycle_193253433#2_28231434_000d6a4a" type="motorcycle" begin="0" end="3600" vehsPerHour="102.55" departLane="best" departPos="random" departSpeed="0" from="193253433#2" to="28231434"/>
  <flow id="motorcycle_193253433#2_23241821#0_000d6a4a" type="motorcycle" begin="0" end="3600" vehsPerHour="95.32" departLane="best" departPos="random" departSpeed="0" from="193253433#2" to="23241821#0"/>
  <flow id="motorcycle_193253433#2_198876042#0_000d6a4a" type="motorcycle" begin="0" end="3600" vehsPerHour="80.97" departLane="best" departPos="random" departSpeed="0" from="193253433#2" to="198876042#0"/>
  <flow id="motorcycle_193253433#2_193253427#0_000d6a4a" type="motorcycle" begin="0" end="3600" vehsPerHour="65.32" departLane="best" departPos="random" departSpeed="0" from="193253433#2" to="193253427#0"/>
  <flow id="car_198876045#1_28231434_000d6a4a" type="car" begin="0" end="3600" vehsPerHour="33.12" departLane="best" departPos="random" departSpeed="0" from="198876045#1" to="28231434"/>
  <flow id="car_198876045#1_23241821#0_000d6a4a" type="car" begin="0" end="3600" vehsPerHour="30.66" departLane="best" departPos="random" departSpeed="0" from="198876045#1" to="23241821#0"/>
  <flow id="car_198876045#1_198876042#0_000d6a4a" type="car" begin="0" end="3600" vehsPerHour="27.04" departLane="best" departPos="random" departSpeed="0" from="198876045#1" to="198876042#0"/>
  <flow id="car_198876045#1_193253427#0_000d6a4a" type="car" begin="0" end="3600" vehsPerHour="22.87" departLane="best" departPos="random" departSpeed="0" from="198876045#1" to="193253427#0"/>
  <flow id="car_198876045#1_198876043#2_000d6a4a" type="car" begin="0" end="3600" vehsPerHour="20.18" departLane="best" departPos="random" departSpeed="0" from="198876045#1" to="198876043#2"/>
  <flow id="motorcycle_198876045#1_28231434_000d6a4a" type="motorcycle" begin="0" end="3600" vehsPerHour="99.99" departLane="best" departPos="random" departSpeed="0" from="198876045#1" to="28231434"/>
  <flow id="motorcycle_198876045#1_23241821#0_000d6a4a" type="motorcycle" begin="0" end="3600" vehsPerHour="84.80" departLane="best" departPos="random" departSpeed="0" from="198876045#1" to="23241821#0"/>
  <flow id="motorcycle_198876045#1_198876042#0_000d6a4a" type="motorcycle" begin="0" end="3600" vehsPerHour="77.48" departLane="best" departPos="random" departSpeed="0" from="198876045#1" to="198876042#0"/>
  <flow id="motorcycle_198876045#1_193253427#0_000d6a4a" type="motorcycle" begin="0" end="3600" vehsPerHour="72.73" departLane="best" departPos="random" departSpeed="0" from="198876045#1" to="193253427#0"/>
  <flow id="motorcycle_198876045#1_198876043#2_000d6a4a" type="motorcycle" begin="0" end="3600" vehsPerHour="68.68" departLane="best" departPos="random" departSpeed="0" from="198876045#1" to="198876043#2"/>
  <flow id="car_-28231434_23241821#0_000d6a4a" type="car" begin="0" end="3600" vehsPerHour="24.06" departLane="best" departPos="random" departSpeed="0" from="-28231434" to="23241821#0"/>
  <flow id="car_-28231434_198876042#0_000d6a4a" type="car" begin="0" end="3600" vehsPerHour="21.16" departLane="best" departPos="random" departSpeed="0" from="-28231434" to="198876042#0"/>
  <flow id="car_-28231434_193253427#0_000d6a4a" type="car" begin="0" end="3600" vehsPerHour="17.19" departLane="best" departPos="random" departSpeed="0" from="-28231434" to="193253427#0"/>
  <flow id="car_-28231434_198876043#2_000d6a4a" type="car" begin="0" end="3600" vehsPerHour="16.66" departLane="best" departPos="random" departSpeed="0" from="-28231434" to="198876043#2"/>
  <flow id="car_-28231434_28231434_000d6a4a" type="car" begin="0" end="3600" vehsPerHour="13.37" departLane="best" departPos="random" departSpeed="0" from="-28231434" to="28231434"/>
  <flow id="motorcycle_-28231434_23241821#0_000d6a4a" type="motorcycle" begin="0" end="3600" vehsPerHour="67.04" departLane="best" departPos="random" departSpeed="0" from="-28231434" to="23241821#0"/>
  <flow id="motorcycle_-28231434_198876042#0_000d6a4a" type="motorcycle" begin="0" end="3600" vehsPerHour="62.57" departLane="best" departPos="random" departSpeed="0" from="-28231434" to="198876042#0"/>
  <flow id="motorcycle_-28231434_193253427#0_000d6a4a" type="motorcycle" begin="0" end="3600" vehsPerHour="54.96" departLane="best" departPos="random" departSpeed="0" from="-28231434" to="193253427#0"/>
  <flow id="motorcycle_-28231434_198876043#2_000d6a4a" type="motorcycle" begin="0" end="3600" vehsPerHour="45.42" departLane="best" departPos="random" departSpeed="0" from="-28231434" to="198876043#2"/>
  <flow id="motorcycle_-28231434_28231434_000d6a4a" type="motorcycle" begin="0" end="3600" vehsPerHour="40.27" departLane="best" departPos="random" departSpeed="0" from="-28231434" to="28231434"/>
  <flow id="car_-55029244#0_198876042#0_000d6a4a" type="car" begin="0" end="3600" vehsPerHour="25.82" departLane="best" departPos="random" departSpeed="0" from="-55029244#0" to="198876042#0"/>
  <flow id="car_-55029244#0_193253427#0_000d6a4a" type="car" begin="0" end="3600" vehsPerHour="22.72" departLane="best" departPos="random" departSpeed="0" from="-55029244#0" to="193253427#0"/>
  <flow id="car_-55029244#0_198876043#2_000d6a4a" type="car" begin="0" end="3600" vehsPerHour="20.43" departLane="best" departPos="random" departSpeed="0" from="-55029244#0" to="198876043#2"/>
  <flow id="car_-55029244#0_28231434_000d6a4a" type="car" begin="0" end="3600" vehsPerHour="16.35" departLane="best" departPos="random" departSpeed="0" from="-55029244#0" to="28231434"/>
  <flow id="car_-55029244#0_23241821#0_000d6a4a" type="car" begin="0" end="3600" vehsPerHour="13.37" departLane="best" departPos="random" departSpeed="0" from="-55029244#0" to="23241821#0"/>
  <flow id="motorcycle_-55029244#0_198876042#0_000d6a4a" type="motorcycle" begin="0" end="3600" vehsPerHour="76.87" departLane="best" departPos="random" departSpeed="0" from="-55029244#0" to="198876042#0"/>
  <flow id="motorcycle_-55029244#0_193253427#0_000d6a4a" type="motorcycle" begin="0" end="3600" vehsPerHour="68.16" departLane="best" departPos="random" departSpeed="0" from="-55029244#0" to="193253427#0"/>
  <flow id="motorcycle_-55029244#0_198876043#2_000d6a4a" type="motorcycle" begin="0" end="3600" vehsPerHour="58.55" departLane="best" departPos="random" departSpeed="0" from="-55029244#0" to="198876043#2"/>
  <flow id="motorcycle_-55029244#0_28231434_000d6a4a" type="motorcycle" begin="0" end="3600" vehsPerHour="53.28" departLane="best" departPos="random" departSpeed="0" from="-55029244#0" to="28231434"/>
  <flow id="motorcycle_-55029244#0_23241821#0_000d6a4a" type="motorcycle" begin="0" end="3600" vehsPerHour="45.76" departLane="best" departPos="random" departSpeed="0" from="-55029244#0" to="23241821#0"/>
  <flow id="car_34241530#0_198876042#0_000d6a4a" type="car" begin="0" end="3600" vehsPerHour="28.17" departLane="best" departPos="random" departSpeed="0" from="34241530#0" to="198876042#0"/>
  <flow id="car_34241530#0_193253427#0_000d6a4a" type="car" begin="0" end="3600" vehsPerHour="22.72" departLane="best" departPos="random" departSpeed="0" from="34241530#0" to="193253427#0"/>
  <flow id="car_34241530#0_198876043#2_000d6a4a" type="car" begin="0" end="3600" vehsPerHour="19.83" departLane="best" departPos="random" departSpeed="0" from="34241530#0" to="198876043#2"/>
  <flow id="car_34241530#0_28231434_000d6a4a" type="car" begin="0" end="3600" vehsPerHour="17.12" departLane="best" departPos="random" departSpeed="0" from="34241530#0" to="28231434"/>
  <flow id="car_34241530#0_23241821#0_000d6a4a" type="car" begin="0" end="3600" vehsPerHour="12.81" departLane="best" departPos="random" departSpeed="0" from="34241530#0" to="23241821#0"/>
  <flow id="motorcycle_34241530#0_198876042#0_000d6a4a" type="motorcycle" begin="0" end="3600" vehsPerHour="80.25" departLane="best" departPos="random" departSpeed="0" from="34241530#0" to="198876042#0"/>
  <flow id="motorcycle_34241530#0_193253427#0_000d6a4a" type="motorcycle" begin="0" end="3600" vehsPerHour="67.18" departLane="best" departPos="random" departSpeed="0" from="34241530#0" to="193253427#0"/>
  <flow id="motorcycle_34241530#0_198876043#2_000d6a4a" type="motorcycle" begin="0" end="3600" vehsPerHour="63.26" departLane="best" departPos="random" departSpeed="0" from="34241530#0" to="198876043#2"/>
  <flow id="motorcycle_34241530#0_28231434_000d6a4a" type="motorcycle" begin="0" end="3600" vehsPerHour="54.30" departLane="best" departPos="random" departSpeed="0" from="34241530#0" to="28231434"/>
  <flow id="motorcycle_34241530#0_23241821#0_000d6a4a" type="motorcycle" begin="0" end="3600" vehsPerHour="48.61" departLane="best" departPos="random" departSpeed="0" from="34241530#0" to="23241821#0"/>
  <flow id="truck_34241530#0_198876042#0_000d6a4a" type="truck" begin="0" end="3600" vehsPerHour="11.70" departLane="best" departPos="random" departSpeed="0" from="34241530#0" to="198876042#0"/>
</routes>
