<routes>
<vType id="car" vClass="passenger" accel="2.6" decel="4.5" sigma="0.5" length="5.0" maxSpeed="13.9"/>
<vType id="motorcycle" vClass="motorcycle" accel="3.0" decel="5.0" sigma="0.5" length="2.0" maxSpeed="14.0"/>
<vType id="truck" vClass="truck" accel="1.2" decel="3.5" sigma="0.5" length="12.0" maxSpeed="10.0"/>

  <flow id="car_222682222#1_193253427#0_000ed4c6" type="car" begin="0" end="3600" vehsPerHour="58.16" departLane="best" departPos="random" departSpeed="0" from="222682222#1" to="193253427#0"/>
  <flow id="car_222682222#1_198876043#0_000ed4c6" type="car" begin="0" end="3600" vehsPerHour="50.53" departLane="best" departPos="random" departSpeed="0" from="222682222#1" to="198876043#0"/>
  <flow id="car_222682222#1_28231434_000ed4c6" type="car" begin="0" end="3600" vehsPerHour="52.12" departLane="best" departPos="random" departSpeed="0" from="222682222#1" to="28231434"/>
  <flow id="car_222682222#1_23241821#0_000ed4c6" type="car" begin="0" end="3600" vehsPerHour="42.08" departLane="best" departPos="random" departSpeed="0" from="222682222#1" to="23241821#0"/>
  <flow id="car_222682222#1_198876042#0_000ed4c6" type="car" begin="0" end="3600" vehsPerHour="35.20" departLane="best" departPos="random" departSpeed="0" from="222682222#1" to="198876042#0"/>
  <flow id="motorcycle_222682222#1_193253427#0_000ed4c6" type="motorcycle" begin="0" end="3600" vehsPerHour="180.54" departLane="best" departPos="random" departSpeed="0" from="222682222#1" to="193253427#0"/>
  <flow id="motorcycle_222682222#1_198876043#0_000ed4c6" type="motorcycle" begin="0" end="3600" vehsPerHour="159.38" departLane="best" departPos="random" departSpeed="0" from="222682222#1" to="198876043#0"/>
  <flow id="motorcycle_222682222#1_28231434_000ed4c6" type="motorcycle" begin="0" end="3600" vehsPerHour="145.26" departLane="best" departPos="random" departSpeed="0" from="222682222#1" to="28231434"/>
  <flow id="motorcycle_222682222#1_23241821#0_000ed4c6" type="motorcycle" begin="0" end="3600" vehsPerHour="118.57" departLane="best" departPos="random" departSpeed="0" from="222682222#1" to="23241821#0"/>
  <flow id="motorcycle_222682222#1_198876042#0_000ed4c6" type="motorcycle" begin="0" end="3600" vehsPerHour="101.99" departLane="best" departPos="random" departSpeed="0" from="222682222#1" to="198876042#0"/>
  <flow id="car_193253433#2_198876043#0_000ed4c6" type="car" begin="0" end="3600" vehsPerHour="38.64" departLane="best" departPos="random" departSpeed="0" from="193253433#2" to="198876043#0"/>
  <flow id="car_193253433#2_28231434_000ed4c6" type="car" begin="0" end="3600" vehsPerHour="33.32" departLane="best" departPos="random" departSpeed="0" from="193253433#2" to="28231434"/>
  <flow id="car_193253433#2_23241821#0_000ed4c6" type="car" begin="0" end="3600" vehsPerHour="32.20" departLane="best" departPos="random" departSpeed="0" from="193253433#2" to="23241821#0"/>
  <flow id="car_193253433#2_198876042#0_000ed4c6" type="car" begin="0" end="3600" vehsPerHour="26.07" departLane="best" departPos="random" departSpeed="0" from="193253433#2" to="198876042#0"/>
  <flow id="car_193253433#2_193253427#0_000ed4c6" type="car" begin="0" end="3600" vehsPerHour="22.72" departLane="best" departPos="random" departSpeed="0" from="193253433#2" to="193253427#0"/>
  <flow id="motorcycle_193253433#2_198876043#0_000ed4c6" type="motorcycle" begin="0" end="3600" vehsPerHour="120.03" departLane="best" departPos="random" departSpeed="0" from="193253433#2" to="198876043#0"/>
  <flow id="motorcycle_193253433#2_28231434_000ed4c6" type="motorcycle" begin="0" end="3600" vehsPerHour="96.80" departLane="best" departPos="random" departSpeed="0" from="193253433#2" to="28231434"/>
  <flow id="motorcycle_193253433#2_23241821#0_000ed4c6" type="motorcycle" begin="0" end="3600" vehsPerHour="92.84" departLane="best" departPos="random" departSpeed="0" from="193253433#2" to="23241821#0"/>
  <flow id="motorcycle_193253433#2_198876042#0_000ed4c6" type="motorcycle" begin="0" end="3600" vehsPerHour="80.77" departLane="best" departPos="random" departSpeed="0" from="193253433#2" to="198876042#0"/>
  <flow id="motorcycle_193253433#2_193253427#0_000ed4c6" type="motorcycle" begin="0" end="3600" vehsPerHour="68.19" departLane="best" departPos="random" departSpeed="0" from="193253433#2" to="193253427#0"/>
  <flow id="car_198876045#1_28231434_000ed4c6" type="car" begin="0" end="3600" vehsPerHour="33.77" departLane="best" departPos="random" departSpeed="0" from="198876045#1" to="28231434"/>
  <flow id="car_198876045#1_23241821#0_000ed4c6" type="car" begin="0" end="3600" vehsPerHour="30.22" departLane="best" departPos="random" departSpeed="0" from="198876045#1" to="23241821#0"/>
  <flow id="car_198876045#1_198876042#0_000ed4c6" type="car" begin="0" end="3600" vehsPerHour="27.60" departLane="best" departPos="random" departSpeed="0" from="198876045#1" to="198876042#0"/>
  <flow id="car_198876045#1_193253427#0_000ed4c6" type="car" begin="0" end="3600" vehsPerHour="22.94" departLane="best" departPos="random" departSpeed="0" from="198876045#1" to="193253427#0"/>
  <flow id="car_198876045#1_198876043#2_000ed4c6" type="car" begin="0" end="3600" vehsPerHour="19.53" departLane="best" departPos="random" departSpeed="0" from="198876045#1" to="198876043#2"/>
  <flow id="motorcycle_198876045#1_28231434_000ed4c6" type="motorcycle" begin="0" end="3600" vehsPerHour="104.38" departLane="best" departPos="random" departSpeed="0" from="198876045#1" to="28231434"/>
  <flow id="motorcycle_198876045#1_23241821#0_000ed4c6" type="motorcycle" begin="0" end="3600" vehsPerHour="89.43" departLane="best" departPos="random" departSpeed="0" from="198876045#1" to="23241821#0"/>
  <flow id="motorcycle_198876045#1_198876042#0_000ed4c6" type="motorcycle" begin="0" end="3600" vehsPerHour="80.66" departLane="best" departPos="random" departSpeed="0" from="198876045#1" to="198876042#0"/>
  <flow id="motorcycle_198876045#1_193253427#0_000ed4c6" type="motorcycle" begin="0" end="3600" vehsPerHour="72.66" departLane="best" departPos="random" departSpeed="0" from="198876045#1" to="193253427#0"/>
  <flow id="motorcycle_198876045#1_198876043#2_000ed4c6" type="motorcycle" begin="0" end="3600" vehsPerHour="64.08" departLane="best" departPos="random" departSpeed="0" from="198876045#1" to="198876043#2"/>
  <flow id="car_-28231434_23241821#0_000ed4c6" type="car" begin="0" end="3600" vehsPerHour="24.03" departLane="best" departPos="random" departSpeed="0" from="-28231434" to="23241821#0"/>
  <flow id="car_-28231434_198876042#0_000ed4c6" type="car" begin="0" end="3600" vehsPerHour="20.76" departLane="best" departPos="random" departSpeed="0" from="-28231434" to="198876042#0"/>
  <flow id="car_-28231434_193253427#0_000ed4c6" type="car" begin="0" end="3600" vehsPerHour="17.29" departLane="best" departPos="random" departSpeed="0" from="-28231434" to="193253427#0"/>
  <flow id="car_-28231434_198876043#2_000ed4c6" type="car" begin="0" end="3600" vehsPerHour="17.09" departLane="best" departPos="random" departSpeed="0" from="-28231434" to="198876043#2"/>
  <flow id="car_-28231434_28231434_000ed4c6" type="car" begin="0" end="3600" vehsPerHour="12.95" departLane="best" departPos="random" departSpeed="0" from="-28231434" to="28231434"/>
  <flow id="motorcycle_-28231434_23241821#0_000ed4c6" type="motorcycle" begin="0" end="3600" vehsPerHour="65.82" departLane="best" departPos="random" departSpeed="0" from="-28231434" to="23241821#0"/>
  <flow id="motorcycle_-28231434_198876042#0_000ed4c6" type="motorcycle" begin="0" end="3600" vehsPerHour="60.34" departLane="best" departPos="random" departSpeed="0" from="-28231434" to="198876042#0"/>
  <flow id="motorcycle_-28231434_193253427#0_000ed4c6" type="motorcycle" begin="0" end="3600" vehsPerHour="54.72" departLane="best" departPos="random" departSpeed="0" from="-28231434" to="193253427#0"/>
  <flow id="motorcycle_-28231434_198876043#2_000ed4c6" type="motorcycle" begin="0" end="3600" vehsPerHour="46.05" departLane="best" departPos="random" departSpeed="0" from="-28231434" to="198876043#2"/>
  <flow id="motorcycle_-28231434_28231434_000ed4c6" type="motorcycle" begin="0" end="3600" vehsPerHour="38.54" departLane="best" departPos="random" departSpeed="0" from="-28231434" to="28231434"/>
  <flow id="car_-55029244#0_198876042#0_000ed4c6" type="car" begin="0" end="3600" vehsPerHour="26.17" departLane="best" departPos="random" departSpeed="0" from="-55029244#0" to="198876042#0"/>
  <flow id="car_-55029244#0_193253427#0_000ed4c6" type="car" begin="0" end="3600" vehsPerHour="24.23" departLane="best" departPos="random" departSpeed="0" from="-55029244#0" to="193253427#0"/>
  <flow id="car_-55029244#0_198876043#2_000ed4c6" type="car" begin="0" end="3600" vehsPerHour="19.79" departLane="best" departPos="random" departSpeed="0" from="-55029244#0" to="198876043#2"/>
  <flow id="car_-55029244#0_28231434_000ed4c6" type="car" begin="0" end="3600" vehsPerHour="16.19" departLane="best" departPos="random" departSpeed="0" from="-55029244#0" to="28231434"/>
  <flow id="car_-55029244#0_23241821#0_000ed4c6" type="car" begin="0" end="3600" vehsPerHour="13.65" departLane="best" departPos="random" departSpeed="0" from="-55029244#0" to="23241821#0"/>
  <flow id="motorcycle_-55029244#0_198876042#0_000ed4c6" type="motorcycle" begin="0" end="3600" vehsPerHour="81.27" departLane="best" departPos="random" departSpeed="0" from="-55029244#0" to="198876042#0"/>
  <flow id="motorcycle_-55029244#0_193253427#0_000ed4c6" type="motorcycle" begin="0" end="3600" vehsPerHour="67.38" departLane="best" departPos="random" departSpeed="0" from="-55029244#0" to="193253427#0"/>
  <flow id="motorcycle_-55029244#0_198876043#2_000ed4c6" type="motorcycle" begin="0" end="3600" vehsPerHour="61.51" departLane="best" departPos="random" departSpeed="0" from="-55029244#0" to="198876043#2"/>
  <flow id="motorcycle_-55029244#0_28231434_000ed4c6" type="motorcycle" begin="0" end="3600" vehsPerHour="54.29" departLane="best" departPos="random" departSpeed="0" from="-55029244#0" to="28231434"/>
  <flow id="motorcycle_-55029244#0_23241821#0_000ed4c6" type="motorcycle" begin="0" end="3600" vehsPerHour="46.84" departLane="best" departPos="random" departSpeed="0" from="-55029244#0" to="23241821#0"/>
  <flow id="car_34241530#0_198876042#0_000ed4c6" type="car" begin="0" end="3600" vehsPerHour="28.28" departLane="best" departPos="random" departSpeed="0" from="34241530#0" to="198876042#0"/>
  <flow id="car_34241530#0_193253427#0_000ed4c6" type="car" begin="0" end="3600" vehsPerHour="23.86" departLane="best" departPos="random" departSpeed="0" from="34241530#0" to="193253427#0"/>
  <flow id="car_34241530#0_198876043#2_000ed4c6" type="car" begin="0" end="3600" vehsPerHour="19.53" departLane="best" departPos="random" departSpeed="0" from="34241530#0" to="198876043#2"/>
  <flow id="car_34241530#0_28231434_000ed4c6" type="car" begin="0" end="3600" vehsPerHour="16.53" departLane="best" departPos="random" departSpeed="0" from="34241530#0" to="28231434"/>
  <flow id="car_34241530#0_23241821#0_000ed4c6" type="car" begin="0" end="3600" vehsPerHour="13.20" departLane="best" departPos="random" departSpeed="0" from="34241530#0" to="23241821#0"/>
  <flow id="motorcycle_34241530#0_198876042#0_000ed4c6" type="motorcycle" begin="0" end="3600" vehsPerHour="82.68" departLane="best" departPos="random" departSpeed="0" from="34241530#0" to="198876042#0"/>
  <flow id="motorcycle_34241530#0_193253427#0_000ed4c6" type="motorcycle" begin="0" end="3600" vehsPerHour="70.33" departLane="best" departPos="random" departSpeed="0" from="34241530#0" to="193253427#0"/>
  <flow id="motorcycle_34241530#0_198876043#2_000ed4c6" type="motorcycle" begin="0" end="3600" vehsPerHour="60.14" departLane="best" departPos="random" departSpeed="0" from="34241530#0" to="198876043#2"/>
  <flow id="motorcycle_34241530#0_28231434_000ed4c6" type="motorcycle" begin="0" end="3600" vehsPerHour="55.60" departLane="best" departPos="random" departSpeed="0" from="34241530#0" to="28231434"/>
  <flow id="motorcycle_34241530#0_23241821#0_000ed4c6" type="motorcycle" begin="0" end="3600" vehsPerHour="47.67" departLane="best" departPos="random" departSpeed="0" from="34241530#0" to="23241821#0"/>
  <flow id="truck_34241530#0_198876042#0_000ed4c6" type="truck" begin="0" end="3600" vehsPerHour="11.49" departLane="best" departPos="random" departSpeed="0" from="34241530#0" to="198876042#0"/>
</routes>
