<routes>
<vType id="car" vClass="passenger" accel="2.6" decel="4.5" sigma="0.5" length="5.0" maxSpeed="13.9"/>
<vType id="motorcycle" vClass="motorcycle" accel="3.0" decel="5.0" sigma="0.5" length="2.0" maxSpeed="14.0"/>
<vType id="truck" vClass="truck" accel="1.2" decel="3.5" sigma="0.5" length="12.0" maxSpeed="10.0"/>

  <flow id="car_222682222#1_193253427#0_0004e957" type="car" begin="0" end="3600" vehsPerHour="59.73" departLane="best" departPos="random" departSpeed="0" from="222682222#1" to="193253427#0"/>
  <flow id="car_222682222#1_198876043#0_0004e957" type="car" begin="0" end="3600" vehsPerHour="50.14" departLane="best" departPos="random" departSpeed="0" from="222682222#1" to="198876043#0"/>
  <flow id="car_222682222#1_28231434_0004e957" type="car" begin="0" end="3600" vehsPerHour="52.95" departLane="best" departPos="random" departSpeed="0" from="222682222#1" to="28231434"/>
  <flow id="car_222682222#1_23241821#0_0004e957" type="car" begin="0" end="3600" vehsPerHour="42.00" departLane="best" departPos="random" departSpeed="0" from="222682222#1" to="23241821#0"/>
  <flow id="car_222682222#1_198876042#0_0004e957" type="car" begin="0" end="3600" vehsPerHour="34.15" departLane="best" departPos="random" departSpeed="0" from="222682222#1" to="198876042#0"/>
  <flow id="motorcycle_222682222#1_193253427#0_0004e957" type="motorcycle" begin="0" end="3600" vehsPerHour="170.30" departLane="best" departPos="random" departSpeed="0" from="222682222#1" to="193253427#0"/>
  <flow id="motorcycle_222682222#1_198876043#0_0004e957" type="motorcycle" begin="0" end="3600" vehsPerHour="148.55" departLane="best" departPos="random" departSpeed="0" from="222682222#1" to="198876043#0"/>
  <flow id="motorcycle_222682222#1_28231434_0004e957" type="motorcycle" begin="0" end="3600" vehsPerHour="137.83" departLane="best" departPos="random" departSpeed="0" from="222682222#1" to="28231434"/>
  <flow id="motorcycle_222682222#1_23241821#0_0004e957" type="motorcycle" begin="0" end="3600" vehsPerHour="119.76" departLane="best" departPos="random" departSpeed="0" from="222682222#1" to="23241821#0"/>
  <flow id="motorcycle_222682222#1_198876042#0_0004e957" type="motorcycle" begin="0" end="3600" vehsPerHour="102.97" departLane="best" departPos="random" departSpeed="0" from="222682222#1" to="198876042#0"/>
  <flow id="car_193253433#2_198876043#0_0004e957" type="car" begin="0" end="3600" vehsPerHour="38.82" departLane="best" departPos="random" departSpeed="0" from="193253433#2" to="198876043#0"/>
  <flow id="car_193253433#2_28231434_0004e957" type="car" begin="0" end="3600" vehsPerHour="34.43" departLane="best" departPos="random" departSpeed="0" from="193253433#2" to="28231434"/>
  <flow id="car_193253433#2_23241821#0_0004e957" type="car" begin="0" end="3600" vehsPerHour="33.03" departLane="best" departPos="random" departSpeed="0" from="193253433#2" to="23241821#0"/>
  <flow id="car_193253433#2_198876042#0_0004e957" type="car" begin="0" end="3600" vehsPerHour="27.06" departLane="best" departPos="random" departSpeed="0" from="193253433#2" to="198876042#0"/>
  <flow id="car_193253433#2_193253427#0_0004e957" type="car" begin="0" end="3600" vehsPerHour="24.48" departLane="best" departPos="random" departSpeed="0" from="193253433#2" to="193253427#0"/>
  <flow id="motorcycle_193253433#2_198876043#0_0004e957" type="motorcycle" begin="0" end="3600" vehsPerHour="111.61" departLane="best" departPos="random" departSpeed="0" from="193253433#2" to="198876043#0"/>
  <flow id="motorcycle_193253433#2_28231434_0004e957" type="motorcycle" begin="0" end="3600" vehsPerHour="103.55" departLane="best" departPos="random" departSpeed="0" from="193253433#2" to="28231434"/>
  <flow id="motorcycle_193253433#2_23241821#0_0004e957" type="motorcycle" begin="0" end="3600" vehsPerHour="96.48" departLane="best" departPos="random" departSpeed="0" from="193253433#2" to="23241821#0"/>
  <flow id="motorcycle_193253433#2_198876042#0_0004e957" type="motorcycle" begin="0" end="3600" vehsPerHour="81.78" departLane="best" departPos="random" departSpeed="0" from="193253433#2" to="198876042#0"/>
  <flow id="motorcycle_193253433#2_193253427#0_0004e957" type="motorcycle" begin="0" end="3600" vehsPerHour="66.99" departLane="best" departPos="random" departSpeed="0" from="193253433#2" to="193253427#0"/>
  <flow id="car_198876045#1_28231434_0004e957" type="car" begin="0" end="3600" vehsPerHour="34.60" departLane="best" departPos="random" departSpeed="0" from="198876045#1" to="28231434"/>
  <flow id="car_198876045#1_23241821#0_0004e957" type="car" begin="0" end="3600" vehsPerHour="30.77" departLane="best" departPos="random" departSpeed="0" from="198876045#1" to="23241821#0"/>
  <flow id="car_198876045#1_198876042#0_0004e957" type="car" begin="0" end="3600" vehsPerHour="27.39" departLane="best" departPos="random" departSpeed="0" from="198876045#1" to="198876042#0"/>
  <flow id="car_198876045#1_193253427#0_0004e957" type="car" begin="0" end="3600" vehsPerHour="23.14" departLane="best" departPos="random" departSpeed="0" from="198876045#1" to="193253427#0"/>
  <flow id="car_198876045#1_198876043#2_0004e957" type="car" begin="0" end="3600" vehsPerHour="20.48" departLane="best" departPos="random" departSpeed="0" from="198876045#1" to="198876043#2"/>
  <flow id="motorcycle_198876045#1_28231434_0004e957" type="motorcycle" begin="0" end="3600" vehsPerHour="100.95" departLane="best" departPos="random" departSpeed="0" from="198876045#1" to="28231434"/>
  <flow id="motorcycle_198876045#1_23241821#0_0004e957" type="motorcycle" begin="0" end="3600" vehsPerHour="88.55" departLane="best" departPos="random" departSpeed="0" from="198876045#1" to="23241821#0"/>
  <flow id="motorcycle_198876045#1_198876042#0_0004e957" type="motorcycle" begin="0" end="3600" vehsPerHour="80.94" departLane="best" departPos="random" departSpeed="0" from="198876045#1" to="198876042#0"/>
  <flow id="motorcycle_198876045#1_193253427#0_0004e957" type="motorcycle" begin="0" end="3600" vehsPerHour="77.79" departLane="best" departPos="random" departSpeed="0" from="198876045#1" to="193253427#0"/>
  <flow id="motorcycle_198876045#1_198876043#2_0004e957" type="motorcycle" begin="0" end="3600" vehsPerHour="67.95" departLane="best" departPos="random" departSpeed="0" from="198876045#1" to="198876043#2"/>
  <flow id="car_-28231434_23241821#0_0004e957" type="car" begin="0" end="3600" vehsPerHour="23.93" departLane="best" departPos="random" departSpeed="0" from="-28231434" to="23241821#0"/>
  <flow id="car_-28231434_198876042#0_0004e957" type="car" begin="0" end="3600" vehsPerHour="19.71" departLane="best" departPos="random" departSpeed="0" from="-28231434" to="198876042#0"/>
  <flow id="car_-28231434_193253427#0_0004e957" type="car" begin="0" end="3600" vehsPerHour="16.76" departLane="best" departPos="random" departSpeed="0" from="-28231434" to="193253427#0"/>
  <flow id="car_-28231434_198876043#2_0004e957" type="car" begin="0" end="3600" vehsPerHour="17.24" departLane="best" departPos="random" departSpeed="0" from="-28231434" to="198876043#2"/>
  <flow id="car_-28231434_28231434_0004e957" type="car" begin="0" end="3600" vehsPerHour="12.92" departLane="best" departPos="random" departSpeed="0" from="-28231434" to="28231434"/>
  <flow id="motorcycle_-28231434_23241821#0_0004e957" type="motorcycle" begin="0" end="3600" vehsPerHour="64.62" departLane="best" departPos="random" departSpeed="0" from="-28231434" to="23241821#0"/>
  <flow id="motorcycle_-28231434_198876042#0_0004e957" type="motorcycle" begin="0" end="3600" vehsPerHour="63.39" departLane="best" departPos="random" departSpeed="0" from="-28231434" to="198876042#0"/>
  <flow id="motorcycle_-28231434_193253427#0_0004e957" type="motorcycle" begin="0" end="3600" vehsPerHour="53.77" departLane="best" departPos="random" departSpeed="0" from="-28231434" to="193253427#0"/>
  <flow id="motorcycle_-28231434_198876043#2_0004e957" type="motorcycle" begin="0" end="3600" vehsPerHour="45.73" departLane="best" departPos="random" departSpeed="0" from="-28231434" to="198876043#2"/>
  <flow id="motorcycle_-28231434_28231434_0004e957" type="motorcycle" begin="0" end="3600" vehsPerHour="42.15" departLane="best" departPos="random" departSpeed="0" from="-28231434" to="28231434"/>
  <flow id="car_-55029244#0_198876042#0_0004e957" type="car" begin="0" end="3600" vehsPerHour="27.07" departLane="best" departPos="random" departSpeed="0" from="-55029244#0" to="198876042#0"/>
  <flow id="car_-55029244#0_193253427#0_0004e957" type="car" begin="0" end="3600" vehsPerHour="23.00" departLane="best" departPos="random" departSpeed="0" from="-55029244#0" to="193253427#0"/>
  <flow id="car_-55029244#0_198876043#2_0004e957" type="car" begin="0" end="3600" vehsPerHour="19.54" departLane="best" departPos="random" departSpeed="0" from="-55029244#0" to="198876043#2"/>
  <flow id="car_-55029244#0_28231434_0004e957" type="car" begin="0" end="3600" vehsPerHour="16.79" departLane="best" departPos="random" departSpeed="0" from="-55029244#0" to="28231434"/>
  <flow id="car_-55029244#0_23241821#0_0004e957" type="car" begin="0" end="3600" vehsPerHour="13.11" departLane="best" departPos="random" departSpeed="0" from="-55029244#0" to="23241821#0"/>
  <flow id="motorcycle_-55029244#0_198876042#0_0004e957" type="motorcycle" begin="0" end="3600" vehsPerHour="81.53" departLane="best" departPos="random" departSpeed="0" from="-55029244#0" to="198876042#0"/>
  <flow id="motorcycle_-55029244#0_193253427#0_0004e957" type="motorcycle" begin="0" end="3600" vehsPerHour="65.63" departLane="best" departPos="random" departSpeed="0" from="-55029244#0" to="193253427#0"/>
  <flow id="motorcycle_-55029244#0_198876043#2_0004e957" type="motorcycle" begin="0" end="3600" vehsPerHour="59.71" departLane="best" departPos="random" departSpeed="0" from="-55029244#0" to="198876043#2"/>
  <flow id="motorcycle_-55029244#0_28231434_0004e957" type="motorcycle" begin="0" end="3600" vehsPerHour="56.25" departLane="best" departPos="random" departSpeed="0" from="-55029244#0" to="28231434"/>
  <flow id="motorcycle_-55029244#0_23241821#0_0004e957" type="motorcycle" begin="0" end="3600" vehsPerHour="46.97" departLane="best" departPos="random" departSpeed="0" from="-55029244#0" to="23241821#0"/>
  <flow id="car_34241530#0_198876042#0_0004e957" type="car" begin="0" end="3600" vehsPerHour="25.65" departLane="best" departPos="random" departSpeed="0" from="34241530#0" to="198876042#0"/>
  <flow id="car_34241530#0_193253427#0_0004e957" type="car" begin="0" end="3600" vehsPerHour="23.64" departLane="best" departPos="random" departSpeed="0" from="34241530#0" to="193253427#0"/>
  <flow id="car_34241530#0_198876043#2_0004e957" type="car" begin="0" end="3600" vehsPerHour="20.42" departLane="best" departPos="random" departSpeed="0" from="34241530#0" to="198876043#2"/>
  <flow id="car_34241530#0_28231434_0004e957" type="car" begin="0" end="3600" vehsPerHour="16.61" departLane="best" departPos="random" departSpeed="0" from="34241530#0" to="28231434"/>
  <flow id="car_34241530#0_23241821#0_0004e957" type="car" begin="0" end="3600" vehsPerHour="13.51" departLane="best" departPos="random" departSpeed="0" from="34241530#0" to="23241821#0"/>
  <flow id="motorcycle_34241530#0_198876042#0_0004e957" type="motorcycle" begin="0" end="3600" vehsPerHour="77.57" departLane="best" departPos="random" departSpeed="0" from="34241530#0" to="198876042#0"/>
  <flow id="motorcycle_34241530#0_193253427#0_0004e957" type="motorcycle" begin="0" end="3600" vehsPerHour="66.94" departLane="best" departPos="random" departSpeed="0" from="34241530#0" to="193253427#0"/>
  <flow id="motorcycle_34241530#0_198876043#2_0004e957" type="motorcycle" begin="0" end="3600" vehsPerHour="62.55" departLane="best" departPos="random" departSpeed="0" from="34241530#0" to="198876043#2"/>
  <flow id="motorcycle_34241530#0_28231434_0004e957" type="motorcycle" begin="0" end="3600" vehsPerHour="52.81" departLane="best" departPos="random" departSpeed="0" from="34241530#0" to="28231434"/>
  <flow id="motorcycle_34241530#0_23241821#0_0004e957" type="motorcycle" begin="0" end="3600" vehsPerHour="47.18" departLane="best" departPos="random" departSpeed="0" from="34241530#0" to="23241821#0"/>
  <flow id="truck_34241530#0_198876042#0_0004e957" type="truck" begin="0" end="3600" vehsPerHour="11.39" departLane="best" departPos="random" departSpeed="0" from="34241530#0" to="198876042#0"/>
</routes>
