<routes>
<vType id="car" vClass="passenger" accel="2.6" decel="4.5" sigma="0.5" length="5.0" maxSpeed="13.9"/>
<vType id="motorcycle" vClass="motorcycle" accel="3.0" decel="5.0" sigma="0.5" length="2.0" maxSpeed="14.0"/>
<vType id="truck" vClass="truck" accel="1.2" decel="3.5" sigma="0.5" length="12.0" maxSpeed="10.0"/>

  <flow id="car_222682222#1_193253427#0_000a61f6" type="car" begin="0" end="3600" vehsPerHour="61.74" departLane="best" departPos="random" departSpeed="0" from="222682222#1" to="193253427#0"/>
  <flow id="car_222682222#1_198876043#0_000a61f6" type="car" begin="0" end="3600" vehsPerHour="52.09" departLane="best" departPos="random" departSpeed="0" from="222682222#1" to="198876043#0"/>
  <flow id="car_222682222#1_28231434_000a61f6" type="car" begin="0" end="3600" vehsPerHour="51.64" departLane="best" departPos="random" departSpeed="0" from="222682222#1" to="28231434"/>
  <flow id="car_222682222#1_23241821#0_000a61f6" type="car" begin="0" end="3600" vehsPerHour="39.18" departLane="best" departPos="random" departSpeed="0" from="222682222#1" to="23241821#0"/>
  <flow id="car_222682222#1_198876042#0_000a61f6" type="car" begin="0" end="3600" vehsPerHour="32.29" departLane="best" departPos="random" departSpeed="0" from="222682222#1" to="198876042#0"/>
  <flow id="motorcycle_222682222#1_193253427#0_000a61f6" type="motorcycle" begin="0" end="3600" vehsPerHour="183.95" departLane="best" departPos="random" departSpeed="0" from="222682222#1" to="193253427#0"/>
  <flow id="motorcycle_222682222#1_198876043#0_000a61f6" type="motorcycle" begin="0" end="3600" vehsPerHour="151.05" departLane="best" departPos="random" departSpeed="0" from="222682222#1" to="198876043#0"/>
  <flow id="motorcycle_222682222#1_28231434_000a61f6" type="motorcycle" begin="0" end="3600" vehsPerHour="144.24" departLane="best" departPos="random" departSpeed="0" from="222682222#1" to="28231434"/>
  <flow id="motorcycle_222682222#1_23241821#0_000a61f6" type="motorcycle" begin="0" end="3600" vehsPerHour="111.49" departLane="best" departPos="random" departSpeed="0" from="222682222#1" to="23241821#0"/>
  <flow id="motorcycle_222682222#1_198876042#0_000a61f6" type="motorcycle" begin="0" end="3600" vehsPerHour="96.95" departLane="best" departPos="random" departSpeed="0" from="222682222#1" to="198876042#0"/>
  <flow id="car_193253433#2_198876043#0_000a61f6" type="car" begin="0" end="3600" vehsPerHour="41.51" departLane="best" departPos="random" departSpeed="0" from="193253433#2" to="198876043#0"/>
  <flow id="car_193253433#2_28231434_000a61f6" type="car" begin="0" end="3600" vehsPerHour="32.57" departLane="best" departPos="random" departSpeed="0" from="193253433#2" to="28231434"/>
  <flow id="car_193253433#2_23241821#0_000a61f6" type="car" begin="0" end="3600" vehsPerHour="34.33" departLane="best" departPos="random" departSpeed="0" from="193253433#2" to="23241821#0"/>
  <flow id="car_193253433#2_198876042#0_000a61f6" type="car" begin="0" end="3600" vehsPerHour="27.22" departLane="best" departPos="random" departSpeed="0" from="193253433#2" to="198876042#0"/>
  <flow id="car_193253433#2_193253427#0_000a61f6" type="car" begin="0" end="3600" vehsPerHour="23.58" departLane="best" departPos="random" departSpeed="0" from="193253433#2" to="193253427#0"/>
  <flow id="motorcycle_193253433#2_198876043#0_000a61f6" type="motorcycle" begin="0" end="3600" vehsPerHour="118.32" departLane="best" departPos="random" departSpeed="0" from="193253433#2" to="198876043#0"/>
  <flow id="motorcycle_193253433#2_28231434_000a61f6" type="motorcycle" begin="0" end="3600" vehsPerHour="102.10" departLane="best" departPos="random" departSpeed="0" from="193253433#2" to="28231434"/>
  <flow id="motorcycle_193253433#2_23241821#0_000a61f6" type="motorcycle" begin="0" end="3600" vehsPerHour="91.63" departLane="best" departPos="random" departSpeed="0" from="193253433#2" to="23241821#0"/>
  <flow id="motorcycle_193253433#2_198876042#0_000a61f6" type="motorcycle" begin="0" end="3600" vehsPerHour="80.88" departLane="best" departPos="random" departSpeed="0" from="193253433#2" to="198876042#0"/>
  <flow id="motorcycle_193253433#2_193253427#0_000a61f6" type="motorcycle" begin="0" end="3600" vehsPerHour="68.56" departLane="best" departPos="random" departSpeed="0" from="193253433#2" to="193253427#0"/>
  <flow id="car_198876045#1_28231434_000a61f6" type="car" begin="0" end="3600" vehsPerHour="32.54" departLane="best" departPos="random" departSpeed="0" from="198876045#1" to="28231434"/>
  <flow id="car_198876045#1_23241821#0_000a61f6" type="car" begin="0" end="3600" vehsPerHour="31.82" departLane="best" departPos="random" departSpeed="0" from="198876045#1" to="23241821#0"/>
  <flow id="car_198876045#1_198876042#0_000a61f6" type="car" begin="0" end="3600" vehsPerHour="26.17" departLane="best" departPos="random" departSpeed="0" from="198876045#1" to="198876042#0"/>
  <flow id="car_198876045#1_193253427#0_000a61f6" type="car" begin="0" end="3600" vehsPerHour="22.48" departLane="best" departPos="random" departSpeed="0" from="198876045#1" to="193253427#0"/>
  <flow id="car_198876045#1_198876043#2_000a61f6" type="car" begin="0" end="3600" vehsPerHour="21.21" departLane="best" departPos="random" departSpeed="0" from="198876045#1" to="198876043#2"/>
  <flow id="motorcycle_198876045#1_28231434_000a61f6" type="motorcycle" begin="0" end="3600" vehsPerHour="104.09" departLane="best" departPos="random" departSpeed="0" from="198876045#1" to="28231434"/>
  <flow id="motorcycle_198876045#1_23241821#0_000a61f6" type="motorcycle" begin="0" end="3600" vehsPerHour="87.94" departLane="best" departPos="random" departSpeed="0" from="198876045#1" to="23241821#0"/>
  <flow id="motorcycle_198876045#1_198876042#0_000a61f6" type="motorcycle" begin="0" end="3600" vehsPerHour="79.86" departLane="best" departPos="random" departSpeed="0" from="198876045#1" to="198876042#0"/>
  <flow id="motorcycle_198876045#1_193253427#0_000a61f6" type="motorcycle" begin="0" end="3600" vehsPerHour="73.28" departLane="best" departPos="random" departSpeed="0" from="198876045#1" to="193253427#0"/>
  <flow id="motorcycle_198876045#1_198876043#2_000a61f6" type="motorcycle" begin="0" end="3600" vehsPerHour="68.62" departLane="best" departPos="random" departSpeed="0" from="198876045#1" to="198876043#2"/>
  <flow id="car_-28231434_23241821#0_000a61f6" type="car" begin="0" end="3600" vehsPerHour="22.76" departLane="best" departPos="random" departSpeed="0" from="-28231434" to="23241821#0"/>
  <flow id="car_-28231434_198876042#0_000a61f6" type="car" begin="0" end="3600" vehsPerHour="20.20" departLane="best" departPos="random" departSpeed="0" from="-28231434" to="198876042#0"/>
  <flow id="car_-28231434_193253427#0_000a61f6" type="car" begin="0" end="3600" vehsPerHour="17.51" departLane="best" departPos="random" departSpeed="0" from="-28231434" to="193253427#0"/>
  <flow id="car_-28231434_198876043#2_000a61f6" type="car" begin="0" end="3600" vehsPerHour="16.90" departLane="best" departPos="random" departSpeed="0" from="-28231434" to="198876043#2"/>
  <flow id="car_-28231434_28231434_000a61f6" type="car" begin="0" end="3600" vehsPerHour="13.03" departLane="best" departPos="random" departSpeed="0" from="-28231434" to="28231434"/>
  <flow id="motorcycle_-28231434_23241821#0_000a61f6" type="motorcycle" begin="0" end="3600" vehsPerHour="64.44" departLane="best" departPos="random" departSpeed="0" from="-28231434" to="23241821#0"/>
  <flow id="motorcycle_-28231434_198876042#0_000a61f6" type="motorcycle" begin="0" end="3600" vehsPerHour="59.58" departLane="best" departPos="random" departSpeed="0" from="-28231434" to="198876042#0"/>
  <flow id="motorcycle_-28231434_193253427#0_000a61f6" type="motorcycle" begin="0" end="3600" vehsPerHour="51.92" departLane="best" departPos="random" departSpeed="0" from="-28231434" to="193253427#0"/>
  <flow id="motorcycle_-28231434_198876043#2_000a61f6" type="motorcycle" begin="0" end="3600" vehsPerHour="46.57" departLane="best" departPos="random" departSpeed="0" from="-28231434" to="198876043#2"/>
  <flow id="motorcycle_-28231434_28231434_000a61f6" type="motorcycle" begin="0" end="3600" vehsPerHour="39.07" departLane="best" departPos="random" departSpeed="0" from="-28231434" to="28231434"/>
  <flow id="car_-55029244#0_198876042#0_000a61f6" type="car" begin="0" end="3600" vehsPerHour="27.23" departLane="best" departPos="random" departSpeed="0" from="-55029244#0" to="198876042#0"/>
  <flow id="car_-55029244#0_193253427#0_000a61f6" type="car" begin="0" end="3600" vehsPerHour="24.16" departLane="best" departPos="random" departSpeed="0" from="-55029244#0" to="193253427#0"/>
  <flow id="car_-55029244#0_198876043#2_000a61f6" type="car" begin="0" end="3600" vehsPerHour="20.83" departLane="best" departPos="random" departSpeed="0" from="-55029244#0" to="198876043#2"/>
  <flow id="car_-55029244#0_28231434_000a61f6" type="car" begin="0" end="3600" vehsPerHour="17.01" departLane="best" departPos="random" departSpeed="0" from="-55029244#0" to="28231434"/>
  <flow id="car_-55029244#0_23241821#0_000a61f6" type="car" begin="0" end="3600" vehsPerHour="12.96" departLane="best" departPos="random" departSpeed="0" from="-55029244#0" to="23241821#0"/>
  <flow id="motorcycle_-55029244#0_198876042#0_000a61f6" type="motorcycle" begin="0" end="3600" vehsPerHour="83.90" departLane="best" departPos="random" departSpeed="0" from="-55029244#0" to="198876042#0"/>
  <flow id="motorcycle_-55029244#0_193253427#0_000a61f6" type="motorcycle" begin="0" end="3600" vehsPerHour="68.21" departLane="best" departPos="random" departSpeed="0" from="-55029244#0" to="193253427#0"/>
  <flow id="motorcycle_-55029244#0_198876043#2_000a61f6" type="motorcycle" begin="0" end="3600" vehsPerHour="62.00" departLane="best" departPos="random" departSpeed="0" from="-55029244#0" to="198876043#2"/>
  <flow id="motorcycle_-55029244#0_28231434_000a61f6" type="motorcycle" begin="0" end="3600" vehsPerHour="55.29" departLane="best" departPos="random" departSpeed="0" from="-55029244#0" to="28231434"/>
  <flow id="motorcycle_-55029244#0_23241821#0_000a61f6" type="motorcycle" begin="0" end="3600" vehsPerHour="46.06" departLane="best" departPos="random" departSpeed="0" from="-55029244#0" to="23241821#0"/>
  <flow id="car_34241530#0_198876042#0_000a61f6" type="car" begin="0" end="3600" vehsPerHour="27.04" departLane="best" departPos="random" departSpeed="0" from="34241530#0" to="198876042#0"/>
  <flow id="car_34241530#0_193253427#0_000a61f6" type="car" begin="0" end="3600" vehsPerHour="22.61" departLane="best" departPos="random" departSpeed="0" from="34241530#0" to="193253427#0"/>
  <flow id="car_34241530#0_198876043#2_000a61f6" type="car" begin="0" end="3600" vehsPerHour="20.43" departLane="best" departPos="random" departSpeed="0" from="34241530#0" to="198876043#2"/>
  <flow id="car_34241530#0_28231434_000a61f6" type="car" begin="0" end="3600" vehsPerHour="17.58" departLane="best" departPos="random" departSpeed="0" from="34241530#0" to="28231434"/>
  <flow id="car_34241530#0_23241821#0_000a61f6" type="car" begin="0" end="3600" vehsPerHour="13.18" departLane="best" departPos="random" departSpeed="0" from="34241530#0" to="23241821#0"/>
  <flow id="motorcycle_34241530#0_198876042#0_000a61f6" type="motorcycle" begin="0" end="3600" vehsPerHour="78.27" departLane="best" departPos="random" departSpeed="0" from="34241530#0" to="198876042#0"/>
  <flow id="motorcycle_34241530#0_193253427#0_000a61f6" type="motorcycle" begin="0" end="3600" vehsPerHour="64.19" departLane="best" departPos="random" departSpeed="0" from="34241530#0" to="193253427#0"/>
  <flow id="motorcycle_34241530#0_198876043#2_000a61f6" type="motorcycle" begin="0" end="3600" vehsPerHour="59.19" departLane="best" departPos="random" departSpeed="0" from="34241530#0" to="198876043#2"/>
  <flow id="motorcycle_34241530#0_28231434_000a61f6" type="motorcycle" begin="0" end="3600" vehsPerHour="55.63" departLane="best" departPos="random" departSpeed="0" from="34241530#0" to="28231434"/>
  <flow id="motorcycle_34241530#0_23241821#0_000a61f6" type="motorcycle" begin="0" end="3600" vehsPerHour="46.18" departLane="best" departPos="random" departSpeed="0" from="34241530#0" to="23241821#0"/>
  <flow id="truck_34241530#0_198876042#0_000a61f6" type="truck" begin="0" end="3600" vehsPerHour="12.15" departLane="best" departPos="random" departSpeed="0" from="34241530#0" to="198876042#0"/>
</routes>
