<routes>
<vType id="car" vClass="passenger" accel="2.6" decel="4.5" sigma="0.5" length="5.0" maxSpeed="13.9"/>
<vType id="motorcycle" vClass="motorcycle" accel="3.0" decel="5.0" sigma="0.5" length="2.0" maxSpeed="14.0"/>
<vType id="truck" vClass="truck" accel="1.2" decel="3.5" sigma="0.5" length="12.0" maxSpeed="10.0"/>

  <flow id="car_222682222#1_193253427#0_000a8718" type="car" begin="0" end="3600" vehsPerHour="59.75" departLane="best" departPos="random" departSpeed="0" from="222682222#1" to="193253427#0"/>
  <flow id="car_222682222#1_198876043#0_000a8718" type="car" begin="0" end="3600" vehsPerHour="50.34" departLane="best" departPos="random" departSpeed="0" from="222682222#1" to="198876043#0"/>
  <flow id="car_222682222#1_28231434_000a8718" type="car" begin="0" end="3600" vehsPerHour="51.28" departLane="best" departPos="random" departSpeed="0" from="222682222#1" to="28231434"/>
  <flow id="car_222682222#1_23241821#0_000a8718" type="car" begin="0" end="3600" vehsPerHour="39.09" departLane="best" departPos="random" departSpeed="0" from="222682222#1" to="23241821#0"/>
  <flow id="car_222682222#1_198876042#0_000a8718" type="car" begin="0" end="3600" vehsPerHour="34.12" departLane="best" departPos="random" departSpeed="0" from="222682222#1" to="198876042#0"/>
  <flow id="motorcycle_222682222#1_193253427#0_000a8718" type="motorcycle" begin="0" end="3600" vehsPerHour="176.16" departLane="best" departPos="random" departSpeed="0" from="222682222#1" to="193253427#0"/>
  <flow id="motorcycle_222682222#1_198876043#0_000a8718" type="motorcycle" begin="0" end="3600" vehsPerHour="158.39" departLane="best" departPos="random" departSpeed="0" from="222682222#1" to="198876043#0"/>
  <flow id="motorcycle_222682222#1_28231434_000a8718" type="motorcycle" begin="0" end="3600" vehsPerHour="145.45" departLane="best" departPos="random" departSpeed="0" from="222682222#1" to="28231434"/>
  <flow id="motorcycle_222682222#1_23241821#0_000a8718" type="motorcycle" begin="0" end="3600" vehsPerHour="111.61" departLane="best" departPos="random" departSpeed="0" from="222682222#1" to="23241821#0"/>
  <flow id="motorcycle_222682222#1_198876042#0_000a8718" type="motorcycle" begin="0" end="3600" vehsPerHour="99.13" departLane="best" departPos="random" departSpeed="0" from="222682222#1" to="198876042#0"/>
  <flow id="car_193253433#2_198876043#0_000a8718" type="car" begin="0" end="3600" vehsPerHour="39.86" departLane="best" departPos="random" departSpeed="0" from="193253433#2" to="198876043#0"/>
  <flow id="car_193253433#2_28231434_000a8718" type="car" begin="0" end="3600" vehsPerHour="34.33" departLane="best" departPos="random" departSpeed="0" from="193253433#2" to="28231434"/>
  <flow id="car_193253433#2_23241821#0_000a8718" type="car" begin="0" end="3600" vehsPerHour="33.08" departLane="best" departPos="random" departSpeed="0" from="193253433#2" to="23241821#0"/>
  <flow id="car_193253433#2_198876042#0_000a8718" type="car" begin="0" end="3600" vehsPerHour="27.55" departLane="best" departPos="random" departSpeed="0" from="193253433#2" to="198876042#0"/>
  <flow id="car_193253433#2_193253427#0_000a8718" type="car" begin="0" end="3600" vehsPerHour="22.71" departLane="best" departPos="random" departSpeed="0" from="193253433#2" to="193253427#0"/>
  <flow id="motorcycle_193253433#2_198876043#0_000a8718" type="motorcycle" begin="0" end="3600" vehsPerHour="114.88" departLane="best" departPos="random" departSpeed="0" from="193253433#2" to="198876043#0"/>
  <flow id="motorcycle_193253433#2_28231434_000a8718" type="motorcycle" begin="0" end="3600" vehsPerHour="103.06" departLane="best" departPos="random" departSpeed="0" from="193253433#2" to="28231434"/>
  <flow id="motorcycle_193253433#2_23241821#0_000a8718" type="motorcycle" begin="0" end="3600" vehsPerHour="92.50" departLane="best" departPos="random" departSpeed="0" from="193253433#2" to="23241821#0"/>
  <flow id="motorcycle_193253433#2_198876042#0_000a8718" type="motorcycle" begin="0" end="3600" vehsPerHour="76.94" departLane="best" departPos="random" departSpeed="0" from="193253433#2" to="198876042#0"/>
  <flow id="motorcycle_193253433#2_193253427#0_000a8718" type="motorcycle" begin="0" end="3600" vehsPerHour="69.52" departLane="best" departPos="random" departSpeed="0" from="193253433#2" to="193253427#0"/>
  <flow id="car_198876045#1_28231434_000a8718" type="car" begin="0" end="3600" vehsPerHour="35.04" departLane="best" departPos="random" departSpeed="0" from="198876045#1" to="28231434"/>
  <flow id="car_198876045#1_23241821#0_000a8718" type="car" begin="0" end="3600" vehsPerHour="29.05" departLane="best" departPos="random" departSpeed="0" from="198876045#1" to="23241821#0"/>
  <flow id="car_198876045#1_198876042#0_000a8718" type="car" begin="0" end="3600" vehsPerHour="26.57" departLane="best" departPos="random" departSpeed="0" from="198876045#1" to="198876042#0"/>
  <flow id="car_198876045#1_193253427#0_000a8718" type="car" begin="0" end="3600" vehsPerHour="23.67" departLane="best" departPos="random" departSpeed="0" from="198876045#1" to="193253427#0"/>
  <flow id="car_198876045#1_198876043#2_000a8718" type="car" begin="0" end="3600" vehsPerHour="19.64" departLane="best" departPos="random" departSpeed="0" from="198876045#1" to="198876043#2"/>
  <flow id="motorcycle_198876045#1_28231434_000a8718" type="motorcycle" begin="0" end="3600" vehsPerHour="106.05" departLane="best" departPos="random" departSpeed="0" from="198876045#1" to="28231434"/>
  <flow id="motorcycle_198876045#1_23241821#0_000a8718" type="motorcycle" begin="0" end="3600" vehsPerHour="90.23" departLane="best" departPos="random" departSpeed="0" from="198876045#1" to="23241821#0"/>
  <flow id="motorcycle_198876045#1_198876042#0_000a8718" type="motorcycle" begin="0" end="3600" vehsPerHour="80.96" departLane="best" departPos="random" departSpeed="0" from="198876045#1" to="198876042#0"/>
  <flow id="motorcycle_198876045#1_193253427#0_000a8718" type="motorcycle" begin="0" end="3600" vehsPerHour="76.52" departLane="best" departPos="random" departSpeed="0" from="198876045#1" to="193253427#0"/>
  <flow id="motorcycle_198876045#1_198876043#2_000a8718" type="motorcycle" begin="0" end="3600" vehsPerHour="67.11" departLane="best" departPos="random" departSpeed="0" from="198876045#1" to="198876043#2"/>
  <flow id="car_-28231434_23241821#0_000a8718" type="car" begin="0" end="3600" vehsPerHour="24.15" departLane="best" departPos="random" departSpeed="0" from="-28231434" to="23241821#0"/>
  <flow id="car_-28231434_198876042#0_000a8718" type="car" begin="0" end="3600" vehsPerHour="19.68" departLane="best" departPos="random" departSpeed="0" from="-28231434" to="198876042#0"/>
  <flow id="car_-28231434_193253427#0_000a8718" type="car" begin="0" end="3600" vehsPerHour="17.26" departLane="best" departPos="random" departSpeed="0" from="-28231434" to="193253427#0"/>
  <flow id="car_-28231434_198876043#2_000a8718" type="car" begin="0" end="3600" vehsPerHour="16.84" departLane="best" departPos="random" departSpeed="0" from="-28231434" to="198876043#2"/>
  <flow id="car_-28231434_28231434_000a8718" type="car" begin="0" end="3600" vehsPerHour="13.90" departLane="best" departPos="random" departSpeed="0" from="-28231434" to="28231434"/>
  <flow id="motorcycle_-28231434_23241821#0_000a8718" type="motorcycle" begin="0" end="3600" vehsPerHour="64.96" departLane="best" departPos="random" departSpeed="0" from="-28231434" to="23241821#0"/>
  <flow id="motorcycle_-28231434_198876042#0_000a8718" type="motorcycle" begin="0" end="3600" vehsPerHour="60.31" departLane="best" departPos="random" departSpeed="0" from="-28231434" to="198876042#0"/>
  <flow id="motorcycle_-28231434_193253427#0_000a8718" type="motorcycle" begin="0" end="3600" vehsPerHour="56.32" departLane="best" departPos="random" departSpeed="0" from="-28231434" to="193253427#0"/>
  <flow id="motorcycle_-28231434_198876043#2_000a8718" type="motorcycle" begin="0" end="3600" vehsPerHour="46.11" departLane="best" departPos="random" departSpeed="0" from="-28231434" to="198876043#2"/>
  <flow id="motorcycle_-28231434_28231434_000a8718" type="motorcycle" begin="0" end="3600" vehsPerHour="39.19" departLane="best" departPos="random" departSpeed="0" from="-28231434" to="28231434"/>
  <flow id="car_-55029244#0_198876042#0_000a8718" type="car" begin="0" end="3600" vehsPerHour="26.89" departLane="best" departPos="random" departSpeed="0" from="-55029244#0" to="198876042#0"/>
  <flow id="car_-55029244#0_193253427#0_000a8718" type="car" begin="0" end="3600" vehsPerHour="22.59" departLane="best" departPos="random" departSpeed="0" from="-55029244#0" to="193253427#0"/>
  <flow id="car_-55029244#0_198876043#2_000a8718" type="car" begin="0" end="3600" vehsPerHour="19.93" departLane="best" departPos="random" departSpeed="0" from="-55029244#0" to="198876043#2"/>
  <flow id="car_-55029244#0_28231434_000a8718" type="car" begin="0" end="3600" vehsPerHour="17.04" departLane="best" departPos="random" departSpeed="0" from="-55029244#0" to="28231434"/>
  <flow id="car_-55029244#0_23241821#0_000a8718" type="car" begin="0" end="3600" vehsPerHour="13.19" departLane="best" departPos="random" departSpeed="0" from="-55029244#0" to="23241821#0"/>
  <flow id="motorcycle_-55029244#0_198876042#0_000a8718" type="motorcycle" begin="0" end="3600" vehsPerHour="82.35" departLane="best" departPos="random" departSpeed="0" from="-55029244#0" to="198876042#0"/>
  <flow id="motorcycle_-55029244#0_193253427#0_000a8718" type="motorcycle" begin="0" end="3600" vehsPerHour="65.43" departLane="best" departPos="random" departSpeed="0" from="-55029244#0" to="193253427#0"/>
  <flow id="motorcycle_-55029244#0_198876043#2_000a8718" type="motorcycle" begin="0" end="3600" vehsPerHour="59.56" departLane="best" departPos="random" departSpeed="0" from="-55029244#0" to="198876043#2"/>
  <flow id="motorcycle_-55029244#0_28231434_000a8718" type="motorcycle" begin="0" end="3600" vehsPerHour="51.53" departLane="best" departPos="random" departSpeed="0" from="-55029244#0" to="28231434"/>
  <flow id="motorcycle_-55029244#0_23241821#0_000a8718" type="motorcycle" begin="0" end="3600" vehsPerHour="49.13" departLane="best" departPos="random" departSpeed="0" from="-55029244#0" to="23241821#0"/>
  <flow id="car_34241530#0_198876042#0_000a8718" type="car" begin="0" end="3600" vehsPerHour="27.59" departLane="best" departPos="random" departSpeed="0" from="34241530#0" to="198876042#0"/>
  <flow id="car_34241530#0_193253427#0_000a8718" type="car" begin="0" end="3600" vehsPerHour="23.42" departLane="best" departPos="random" departSpeed="0" from="34241530#0" to="193253427#0"/>
  <flow id="car_34241530#0_198876043#2_000a8718" type="car" begin="0" end="3600" vehsPerHour="21.07" departLane="best" departPos="random" departSpeed="0" from="34241530#0" to="198876043#2"/>
  <flow id="car_34241530#0_28231434_000a8718" type="car" begin="0" end="3600" vehsPerHour="16.95" departLane="best" departPos="random" departSpeed="0" from="34241530#0" to="28231434"/>
  <flow id="car_34241530#0_23241821#0_000a8718" type="car" begin="0" end="3600" vehsPerHour="13.60" departLane="best" departPos="random" departSpeed="0" from="34241530#0" to="23241821#0"/>
  <flow id="motorcycle_34241530#0_198876042#0_000a8718" type="motorcycle" begin="0" end="3600" vehsPerHour="81.32" departLane="best" departPos="random" departSpeed="0" from="34241530#0" to="198876042#0"/>
  <flow id="motorcycle_34241530#0_193253427#0_000a8718" type="motorcycle" begin="0" end="3600" vehsPerHour="67.33" departLane="best" departPos="random" departSpeed="0" from="34241530#0" to="193253427#0"/>
  <flow id="motorcycle_34241530#0_198876043#2_000a8718" type="motorcycle" begin="0" end="3600" vehsPerHour="63.40" departLane="best" departPos="random" departSpeed="0" from="34241530#0" to="198876043#2"/>
  <flow id="motorcycle_34241530#0_28231434_000a8718" type="motorcycle" begin="0" end="3600" vehsPerHour="56.47" departLane="best" departPos="random" departSpeed="0" from="34241530#0" to="28231434"/>
  <flow id="motorcycle_34241530#0_23241821#0_000a8718" type="motorcycle" begin="0" end="3600" vehsPerHour="47.54" departLane="best" departPos="random" departSpeed="0" from="34241530#0" to="23241821#0"/>
  <flow id="truck_34241530#0_198876042#0_000a8718" type="truck" begin="0" end="3600" vehsPerHour="12.24" departLane="best" departPos="random" departSpeed="0" from="34241530#0" to="198876042#0"/>
</routes>
