<routes>
<vType id="car" vClass="passenger" accel="2.6" decel="4.5" sigma="0.5" length="5.0" maxSpeed="13.9"/>
<vType id="motorcycle" vClass="motorcycle" accel="3.0" decel="5.0" sigma="0.5" length="2.0" maxSpeed="14.0"/>
<vType id="truck" vClass="truck" accel="1.2" decel="3.5" sigma="0.5" length="12.0" maxSpeed="10.0"/>

  <flow id="car_222682222#1_193253427#0_00006b7a" type="car" begin="0" end="3600" vehsPerHour="62.65" departLane="best" departPos="random" departSpeed="0" from="222682222#1" to="193253427#0"/>
  <flow id="car_222682222#1_198876043#0_00006b7a" type="car" begin="0" end="3600" vehsPerHour="48.10" departLane="best" departPos="random" departSpeed="0" from="222682222#1" to="198876043#0"/>
  <flow id="car_222682222#1_28231434_00006b7a" type="car" begin="0" end="3600" vehsPerHour="50.58" departLane="best" departPos="random" departSpeed="0" from="222682222#1" to="28231434"/>
  <flow id="car_222682222#1_23241821#0_00006b7a" type="car" begin="0" end="3600" vehsPerHour="41.40" departLane="best" departPos="random" departSpeed="0" from="222682222#1" to="23241821#0"/>
  <flow id="car_222682222#1_198876042#0_00006b7a" type="car" begin="0" end="3600" vehsPerHour="33.77" departLane="best" departPos="random" departSpeed="0" from="222682222#1" to="198876042#0"/>
  <flow id="motorcycle_222682222#1_193253427#0_00006b7a" type="motorcycle" begin="0" end="3600" vehsPerHour="182.98" departLane="best" departPos="random" departSpeed="0" from="222682222#1" to="193253427#0"/>
  <flow id="motorcycle_222682222#1_198876043#0_00006b7a" type="motorcycle" begin="0" end="3600" vehsPerHour="155.90" departLane="best" departPos="random" departSpeed="0" from="222682222#1" to="198876043#0"/>
  <flow id="motorcycle_222682222#1_28231434_00006b7a" type="motorcycle" begin="0" end="3600" vehsPerHour="144.09" departLane="best" departPos="random" departSpeed="0" from="222682222#1" to="28231434"/>
  <flow id="motorcycle_222682222#1_23241821#0_00006b7a" type="motorcycle" begin="0" end="3600" vehsPerHour="114.40" departLane="best" departPos="random" departSpeed="0" from="222682222#1" to="23241821#0"/>
  <flow id="motorcycle_222682222#1_198876042#0_00006b7a" type="motorcycle" begin="0" end="3600" vehsPerHour="99.77" departLane="best" departPos="random" departSpeed="0" from="222682222#1" to="198876042#0"/>
  <flow id="car_193253433#2_198876043#0_00006b7a" type="car" begin="0" end="3600" vehsPerHour="40.88" departLane="best" departPos="random" departSpeed="0" from="193253433#2" to="198876043#0"/>
  <flow id="car_193253433#2_28231434_00006b7a" type="car" begin="0" end="3600" vehsPerHour="32.49" departLane="best" departPos="random" departSpeed="0" from="193253433#2" to="28231434"/>
  <flow id="car_193253433#2_23241821#0_00006b7a" type="car" begin="0" end="3600" vehsPerHour="32.07" departLane="best" departPos="random" departSpeed="0" from="193253433#2" to="23241821#0"/>
  <flow id="car_193253433#2_198876042#0_00006b7a" type="car" begin="0" end="3600" vehsPerHour="26.39" departLane="best" departPos="random" departSpeed="0" from="193253433#2" to="198876042#0"/>
  <flow id="car_193253433#2_193253427#0_00006b7a" type="car" begin="0" end="3600" vehsPerHour="23.92" departLane="best" departPos="random" departSpeed="0" from="193253433#2" to="193253427#0"/>
  <flow id="motorcycle_193253433#2_198876043#0_00006b7a" type="motorcycle" begin="0" end="3600" vehsPerHour="111.75" departLane="best" departPos="random" departSpeed="0" from="193253433#2" to="198876043#0"/>
  <flow id="motorcycle_193253433#2_28231434_00006b7a" type="motorcycle" begin="0" end="3600" vehsPerHour="105.85" departLane="best" departPos="random" departSpeed="0" from="193253433#2" to="28231434"/>
  <flow id="motorcycle_193253433#2_23241821#0_00006b7a" type="motorcycle" begin="0" end="3600" vehsPerHour="92.53" departLane="best" departPos="random" departSpeed="0" from="193253433#2" to="23241821#0"/>
  <flow id="motorcycle_193253433#2_198876042#0_00006b7a" type="motorcycle" begin="0" end="3600" vehsPerHour="79.00" departLane="best" departPos="random" departSpeed="0" from="193253433#2" to="198876042#0"/>
  <flow id="motorcycle_193253433#2_193253427#0_00006b7a" type="motorcycle" begin="0" end="3600" vehsPerHour="70.21" departLane="best" departPos="random" departSpeed="0" from="193253433#2" to="193253427#0"/>
  <flow id="car_198876045#1_28231434_00006b7a" type="car" begin="0" end="3600" vehsPerHour="33.31" departLane="best" departPos="random" departSpeed="0" from="198876045#1" to="28231434"/>
  <flow id="car_198876045#1_23241821#0_00006b7a" type="car" begin="0" end="3600" vehsPerHour="30.53" departLane="best" departPos="random" departSpeed="0" from="198876045#1" to="23241821#0"/>
  <flow id="car_198876045#1_198876042#0_00006b7a" type="car" begin="0" end="3600" vehsPerHour="26.19" departLane="best" departPos="random" departSpeed="0" from="198876045#1" to="198876042#0"/>
  <flow id="car_198876045#1_193253427#0_00006b7a" type="car" begin="0" end="3600" vehsPerHour="24.10" departLane="best" departPos="random" departSpeed="0" from="198876045#1" to="193253427#0"/>
  <flow id="car_198876045#1_198876043#2_00006b7a" type="car" begin="0" end="3600" vehsPerHour="21.08" departLane="best" departPos="random" departSpeed="0" from="198876045#1" to="198876043#2"/>
  <flow id="motorcycle_198876045#1_28231434_00006b7a" type="motorcycle" begin="0" end="3600" vehsPerHour="103.45" departLane="best" departPos="random" departSpeed="0" from="198876045#1" to="28231434"/>
  <flow id="motorcycle_198876045#1_23241821#0_00006b7a" type="motorcycle" begin="0" end="3600" vehsPerHour="86.67" departLane="best" departPos="random" departSpeed="0" from="198876045#1" to="23241821#0"/>
  <flow id="motorcycle_198876045#1_198876042#0_00006b7a" type="motorcycle" begin="0" end="3600" vehsPerHour="80.66" departLane="best" departPos="random" departSpeed="0" from="198876045#1" to="198876042#0"/>
  <flow id="motorcycle_198876045#1_193253427#0_00006b7a" type="motorcycle" begin="0" end="3600" vehsPerHour="73.10" departLane="best" departPos="random" departSpeed="0" from="198876045#1" to="193253427#0"/>
  <flow id="motorcycle_198876045#1_198876043#2_00006b7a" type="motorcycle" begin="0" end="3600" vehsPerHour="68.22" departLane="best" departPos="random" departSpeed="0" from="198876045#1" to="198876043#2"/>
  <flow id="car_-28231434_23241821#0_00006b7a" type="car" begin="0" end="3600" vehsPerHour="23.35" departLane="best" departPos="random" departSpeed="0" from="-28231434" to="23241821#0"/>
  <flow id="car_-28231434_198876042#0_00006b7a" type="car" begin="0" end="3600" vehsPerHour="21.10" departLane="best" departPos="random" departSpeed="0" from="-28231434" to="198876042#0"/>
  <flow id="car_-28231434_193253427#0_00006b7a" type="car" begin="0" end="3600" vehsPerHour="16.10" departLane="best" departPos="random" departSpeed="0" from="-28231434" to="193253427#0"/>
  <flow id="car_-28231434_198876043#2_00006b7a" type="car" begin="0" end="3600" vehsPerHour="16.71" departLane="best" departPos="random" departSpeed="0" from="-28231434" to="198876043#2"/>
  <flow id="car_-28231434_28231434_00006b7a" type="car" begin="0" end="3600" vehsPerHour="13.61" departLane="best" departPos="random" departSpeed="0" from="-28231434" to="28231434"/>
  <flow id="motorcycle_-28231434_23241821#0_00006b7a" type="motorcycle" begin="0" end="3600" vehsPerHour="67.23" departLane="best" departPos="random" departSpeed="0" from="-28231434" to="23241821#0"/>
  <flow id="motorcycle_-28231434_198876042#0_00006b7a" type="motorcycle" begin="0" end="3600" vehsPerHour="59.00" departLane="best" departPos="random" departSpeed="0" from="-28231434" to="198876042#0"/>
  <flow id="motorcycle_-28231434_193253427#0_00006b7a" type="motorcycle" begin="0" end="3600" vehsPerHour="53.01" departLane="best" departPos="random" departSpeed="0" from="-28231434" to="193253427#0"/>
  <flow id="motorcycle_-28231434_198876043#2_00006b7a" type="motorcycle" begin="0" end="3600" vehsPerHour="47.63" departLane="best" departPos="random" departSpeed="0" from="-28231434" to="198876043#2"/>
  <flow id="motorcycle_-28231434_28231434_00006b7a" type="motorcycle" begin="0" end="3600" vehsPerHour="41.14" departLane="best" departPos="random" departSpeed="0" from="-28231434" to="28231434"/>
  <flow id="car_-55029244#0_198876042#0_00006b7a" type="car" begin="0" end="3600" vehsPerHour="27.67" departLane="best" departPos="random" departSpeed="0" from="-55029244#0" to="198876042#0"/>
  <flow id="car_-55029244#0_193253427#0_00006b7a" type="car" begin="0" end="3600" vehsPerHour="22.48" departLane="best" departPos="random" departSpeed="0" from="-55029244#0" to="193253427#0"/>
  <flow id="car_-55029244#0_198876043#2_00006b7a" type="car" begin="0" end="3600" vehsPerHour="19.29" departLane="best" departPos="random" departSpeed="0" from="-55029244#0" to="198876043#2"/>
  <flow id="car_-55029244#0_28231434_00006b7a" type="car" begin="0" end="3600" vehsPerHour="16.02" departLane="best" departPos="random" departSpeed="0" from="-55029244#0" to="28231434"/>
  <flow id="car_-55029244#0_23241821#0_00006b7a" type="car" begin="0" end="3600" vehsPerHour="13.44" departLane="best" departPos="random" departSpeed="0" from="-55029244#0" to="23241821#0"/>
  <flow id="motorcycle_-55029244#0_198876042#0_00006b7a" type="motorcycle" begin="0" end="3600" vehsPerHour="76.88" departLane="best" departPos="random" departSpeed="0" from="-55029244#0" to="198876042#0"/>
  <flow id="motorcycle_-55029244#0_193253427#0_00006b7a" type="motorcycle" begin="0" end="3600" vehsPerHour="66.47" departLane="best" departPos="random" departSpeed="0" from="-55029244#0" to="193253427#0"/>
  <flow id="motorcycle_-55029244#0_198876043#2_00006b7a" type="motorcycle" begin="0" end="3600" vehsPerHour="57.88" departLane="best" departPos="random" departSpeed="0" from="-55029244#0" to="198876043#2"/>
  <flow id="motorcycle_-55029244#0_28231434_00006b7a" type="motorcycle" begin="0" end="3600" vehsPerHour="56.49" departLane="best" departPos="random" departSpeed="0" from="-55029244#0" to="28231434"/>
  <flow id="motorcycle_-55029244#0_23241821#0_00006b7a" type="motorcycle" begin="0" end="3600" vehsPerHour="45.43" departLane="best" departPos="random" departSpeed="0" from="-55029244#0" to="23241821#0"/>
  <flow id="car_34241530#0_198876042#0_00006b7a" type="car" begin="0" end="3600" vehsPerHour="27.19" departLane="best" departPos="random" departSpeed="0" from="34241530#0" to="198876042#0"/>
  <flow id="car_34241530#0_193253427#0_00006b7a" type="car" begin="0" end="3600" vehsPerHour="23.28" departLane="best" departPos="random" departSpeed="0" from="34241530#0" to="193253427#0"/>
  <flow id="car_34241530#0_198876043#2_00006b7a" type="car" begin="0" end="3600" vehsPerHour="19.98" departLane="best" departPos="random" departSpeed="0" from="34241530#0" to="198876043#2"/>
  <flow id="car_34241530#0_28231434_00006b7a" type="car" begin="0" end="3600" vehsPerHour="16.70" departLane="best" departPos="random" departSpeed="0" from="34241530#0" to="28231434"/>
  <flow id="car_34241530#0_23241821#0_00006b7a" type="car" begin="0" end="3600" vehsPerHour="13.47" departLane="best" departPos="random" departSpeed="0" from="34241530#0" to="23241821#0"/>
  <flow id="motorcycle_34241530#0_198876042#0_00006b7a" type="motorcycle" begin="0" end="3600" vehsPerHour="82.57" departLane="best" departPos="random" departSpeed="0" from="34241530#0" to="198876042#0"/>
  <flow id="motorcycle_34241530#0_193253427#0_00006b7a" type="motorcycle" begin="0" end="3600" vehsPerHour="68.59" departLane="best" departPos="random" departSpeed="0" from="34241530#0" to="193253427#0"/>
  <flow id="motorcycle_34241530#0_198876043#2_00006b7a" type="motorcycle" begin="0" end="3600" vehsPerHour="59.06" departLane="best" departPos="random" departSpeed="0" from="34241530#0" to="198876043#2"/>
  <flow id="motorcycle_34241530#0_28231434_00006b7a" type="motorcycle" begin="0" end="3600" vehsPerHour="53.93" departLane="best" departPos="random" departSpeed="0" from="34241530#0" to="28231434"/>
  <flow id="motorcycle_34241530#0_23241821#0_00006b7a" type="motorcycle" begin="0" end="3600" vehsPerHour="45.40" departLane="best" departPos="random" departSpeed="0" from="34241530#0" to="23241821#0"/>
  <flow id="truck_34241530#0_198876042#0_00006b7a" type="truck" begin="0" end="3600" vehsPerHour="11.50" departLane="best" departPos="random" departSpeed="0" from="34241530#0" to="198876042#0"/>
</routes>
