<routes>
<vType id="car" vClass="passenger" accel="2.6" decel="4.5" sigma="0.5" length="5.0" maxSpeed="13.9"/>
<vType id="motorcycle" vClass="motorcycle" accel="3.0" decel="5.0" sigma="0.5" length="2.0" maxSpeed="14.0"/>
<vType id="truck" vClass="truck" accel="1.2" decel="3.5" sigma="0.5" length="12.0" maxSpeed="10.0"/>

  <flow id="car_222682222#1_193253427#0_0001cb16" type="car" begin="0" end="3600" vehsPerHour="62.74" departLane="best" departPos="random" departSpeed="0" from="222682222#1" to="193253427#0"/>
  <flow id="car_222682222#1_198876043#0_0001cb16" type="car" begin="0" end="3600" vehsPerHour="53.05" departLane="best" departPos="random" departSpeed="0" from="222682222#1" to="198876043#0"/>
  <flow id="car_222682222#1_28231434_0001cb16" type="car" begin="0" end="3600" vehsPerHour="48.82" departLane="best" departPos="random" departSpeed="0" from="222682222#1" to="28231434"/>
  <flow id="car_222682222#1_23241821#0_0001cb16" type="car" begin="0" end="3600" vehsPerHour="40.72" departLane="best" departPos="random" departSpeed="0" from="222682222#1" to="23241821#0"/>
  <flow id="car_222682222#1_198876042#0_0001cb16" type="car" begin="0" end="3600" vehsPerHour="33.29" departLane="best" departPos="random" departSpeed="0" from="222682222#1" to="198876042#0"/>
  <flow id="motorcycle_222682222#1_193253427#0_0001cb16" type="motorcycle" begin="0" end="3600" vehsPerHour="167.18" departLane="best" departPos="random" departSpeed="0" from="222682222#1" to="193253427#0"/>
  <flow id="motorcycle_222682222#1_198876043#0_0001cb16" type="motorcycle" begin="0" end="3600" vehsPerHour="155.22" departLane="best" departPos="random" departSpeed="0" from="222682222#1" to="198876043#0"/>
  <flow id="motorcycle_222682222#1_28231434_0001cb16" type="motorcycle" begin="0" end="3600" vehsPerHour="146.41" departLane="best" departPos="random" departSpeed="0" from="222682222#1" to="28231434"/>
  <flow id="motorcycle_222682222#1_23241821#0_0001cb16" type="motorcycle" begin="0" end="3600" vehsPerHour="108.91" departLane="best" departPos="random" departSpeed="0" from="222682222#1" to="23241821#0"/>
  <flow id="motorcycle_222682222#1_198876042#0_0001cb16" type="motorcycle" begin="0" end="3600" vehsPerHour="102.29" departLane="best" departPos="random" departSpeed="0" from="222682222#1" to="198876042#0"/>
  <flow id="car_193253433#2_198876043#0_0001cb16" type="car" begin="0" end="3600" vehsPerHour="39.63" departLane="best" departPos="random" departSpeed="0" from="193253433#2" to="198876043#0"/>
  <flow id="car_193253433#2_28231434_0001cb16" type="car" begin="0" end="3600" vehsPerHour="33.14" departLane="best" departPos="random" departSpeed="0" from="193253433#2" to="28231434"/>
  <flow id="car_193253433#2_23241821#0_0001cb16" type="car" begin="0" end="3600" vehsPerHour="33.87" departLane="best" departPos="random" departSpeed="0" from="193253433#2" to="23241821#0"/>
  <flow id="car_193253433#2_198876042#0_0001cb16" type="car" begin="0" end="3600" vehsPerHour="27.55" departLane="best" departPos="random" departSpeed="0" from="193253433#2" to="198876042#0"/>
  <flow id="car_193253433#2_193253427#0_0001cb16" type="car" begin="0" end="3600" vehsPerHour="22.44" departLane="best" departPos="random" departSpeed="0" from="193253433#2" to="193253427#0"/>
  <flow id="motorcycle_193253433#2_198876043#0_0001cb16" type="motorcycle" begin="0" end="3600" vehsPerHour="117.99" departLane="best" departPos="random" departSpeed="0" from="193253433#2" to="198876043#0"/>
  <flow id="motorcycle_193253433#2_28231434_0001cb16" type="motorcycle" begin="0" end="3600" vehsPerHour="104.48" departLane="best" departPos="random" departSpeed="0" from="193253433#2" to="28231434"/>
  <flow id="motorcycle_193253433#2_23241821#0_0001cb16" type="motorcycle" begin="0" end="3600" vehsPerHour="97.87" departLane="best" departPos="random" departSpeed="0" from="193253433#2" to="23241821#0"/>
  <flow id="motorcycle_193253433#2_198876042#0_0001cb16" type="motorcycle" begin="0" end="3600" vehsPerHour="78.44" departLane="best" departPos="random" departSpeed="0" from="193253433#2" to="198876042#0"/>
  <flow id="motorcycle_193253433#2_193253427#0_0001cb16" type="motorcycle" begin="0" end="3600" vehsPerHour="65.43" departLane="best" departPos="random" departSpeed="0" from="193253433#2" to="193253427#0"/>
  <flow id="car_198876045#1_28231434_0001cb16" type="car" begin="0" end="3600" vehsPerHour="33.93" departLane="best" departPos="random" departSpeed="0" from="198876045#1" to="28231434"/>
  <flow id="car_198876045#1_23241821#0_0001cb16" type="car" begin="0" end="3600" vehsPerHour="29.33" departLane="best" departPos="random" departSpeed="0" from="198876045#1" to="23241821#0"/>
  <flow id="car_198876045#1_198876042#0_0001cb16" type="car" begin="0" end="3600" vehsPerHour="27.93" departLane="best" departPos="random" departSpeed="0" from="198876045#1" to="198876042#0"/>
  <flow id="car_198876045#1_193253427#0_0001cb16" type="car" begin="0" end="3600" vehsPerHour="22.50" departLane="best" departPos="random" departSpeed="0" from="198876045#1" to="193253427#0"/>
  <flow id="car_198876045#1_198876043#2_0001cb16" type="car" begin="0" end="3600" vehsPerHour="20.53" departLane="best" departPos="random" departSpeed="0" from="198876045#1" to="198876043#2"/>
  <flow id="motorcycle_198876045#1_28231434_0001cb16" type="motorcycle" begin="0" end="3600" vehsPerHour="102.56" departLane="best" departPos="random" departSpeed="0" from="198876045#1" to="28231434"/>
  <flow id="motorcycle_198876045#1_23241821#0_0001cb16" type="motorcycle" begin="0" end="3600" vehsPerHour="88.54" departLane="best" departPos="random" departSpeed="0" from="198876045#1" to="23241821#0"/>
  <flow id="motorcycle_198876045#1_198876042#0_0001cb16" type="motorcycle" begin="0" end="3600" vehsPerHour="79.44" departLane="best" departPos="random" departSpeed="0" from="198876045#1" to="198876042#0"/>
  <flow id="motorcycle_198876045#1_193253427#0_0001cb16" type="motorcycle" begin="0" end="3600" vehsPerHour="72.56" departLane="best" departPos="random" departSpeed="0" from="198876045#1" to="193253427#0"/>
  <flow id="motorcycle_198876045#1_198876043#2_0001cb16" type="motorcycle" begin="0" end="3600" vehsPerHour="65.46" departLane="best" departPos="random" departSpeed="0" from="198876045#1" to="198876043#2"/>
  <flow id="car_-28231434_23241821#0_0001cb16" type="car" begin="0" end="3600" vehsPerHour="23.28" departLane="best" departPos="random" departSpeed="0" from="-28231434" to="23241821#0"/>
  <flow id="car_-28231434_198876042#0_0001cb16" type="car" begin="0" end="3600" vehsPerHour="20.01" departLane="best" departPos="random" departSpeed="0" from="-28231434" to="198876042#0"/>
  <flow id="car_-28231434_193253427#0_0001cb16" type="car" begin="0" end="3600" vehsPerHour="17.31" departLane="best" departPos="random" departSpeed="0" from="-28231434" to="193253427#0"/>
  <flow id="car_-28231434_198876043#2_0001cb16" type="car" begin="0" end="3600" vehsPerHour="17.14" departLane="best" departPos="random" departSpeed="0" from="-28231434" to="198876043#2"/>
  <flow id="car_-28231434_28231434_0001cb16" type="car" begin="0" end="3600" vehsPerHour="13.00" departLane="best" departPos="random" departSpeed="0" from="-28231434" to="28231434"/>
  <flow id="motorcycle_-28231434_23241821#0_0001cb16" type="motorcycle" begin="0" end="3600" vehsPerHour="70.06" departLane="best" departPos="random" departSpeed="0" from="-28231434" to="23241821#0"/>
  <flow id="motorcycle_-28231434_198876042#0_0001cb16" type="motorcycle" begin="0" end="3600" vehsPerHour="58.29" departLane="best" departPos="random" departSpeed="0" from="-28231434" to="198876042#0"/>
  <flow id="motorcycle_-28231434_193253427#0_0001cb16" type="motorcycle" begin="0" end="3600" vehsPerHour="52.72" departLane="best" departPos="random" departSpeed="0" from="-28231434" to="193253427#0"/>
  <flow id="motorcycle_-28231434_198876043#2_0001cb16" type="motorcycle" begin="0" end="3600" vehsPerHour="46.75" departLane="best" departPos="random" departSpeed="0" from="-28231434" to="198876043#2"/>
  <flow id="motorcycle_-28231434_28231434_0001cb16" type="motorcycle" begin="0" end="3600" vehsPerHour="42.02" departLane="best" departPos="random" departSpeed="0" from="-28231434" to="28231434"/>
  <flow id="car_-55029244#0_198876042#0_0001cb16" type="car" begin="0" end="3600" vehsPerHour="27.29" departLane="best" departPos="random" departSpeed="0" from="-55029244#0" to="198876042#0"/>
  <flow id="car_-55029244#0_193253427#0_0001cb16" type="car" begin="0" end="3600" vehsPerHour="24.28" departLane="best" departPos="random" departSpeed="0" from="-55029244#0" to="193253427#0"/>
  <flow id="car_-55029244#0_198876043#2_0001cb16" type="car" begin="0" end="3600" vehsPerHour="20.80" departLane="best" departPos="random" departSpeed="0" from="-55029244#0" to="198876043#2"/>
  <flow id="car_-55029244#0_28231434_0001cb16" type="car" begin="0" end="3600" vehsPerHour="17.45" departLane="best" departPos="random" departSpeed="0" from="-55029244#0" to="28231434"/>
  <flow id="car_-55029244#0_23241821#0_0001cb16" type="car" begin="0" end="3600" vehsPerHour="13.34" departLane="best" departPos="random" departSpeed="0" from="-55029244#0" to="23241821#0"/>
  <flow id="motorcycle_-55029244#0_198876042#0_0001cb16" type="motorcycle" begin="0" end="3600" vehsPerHour="80.24" departLane="best" departPos="random" departSpeed="0" from="-55029244#0" to="198876042#0"/>
  <flow id="motorcycle_-55029244#0_193253427#0_0001cb16" type="motorcycle" begin="0" end="3600" vehsPerHour="65.46" departLane="best" departPos="random" departSpeed="0" from="-55029244#0" to="193253427#0"/>
  <flow id="motorcycle_-55029244#0_198876043#2_0001cb16" type="motorcycle" begin="0" end="3600" vehsPerHour="61.52" departLane="best" departPos="random" departSpeed="0" from="-55029244#0" to="198876043#2"/>
  <flow id="motorcycle_-55029244#0_28231434_0001cb16" type="motorcycle" begin="0" end="3600" vehsPerHour="52.79" departLane="best" departPos="random" departSpeed="0" from="-55029244#0" to="28231434"/>
  <flow id="motorcycle_-55029244#0_23241821#0_0001cb16" type="motorcycle" begin="0" end="3600" vehsPerHour="46.29" departLane="best" departPos="random" departSpeed="0" from="-55029244#0" to="23241821#0"/>
  <flow id="car_34241530#0_198876042#0_0001cb16" type="car" begin="0" end="3600" vehsPerHour="28.17" departLane="best" departPos="random" departSpeed="0" from="34241530#0" to="198876042#0"/>
  <flow id="car_34241530#0_193253427#0_0001cb16" type="car" begin="0" end="3600" vehsPerHour="22.70" departLane="best" departPos="random" departSpeed="0" from="34241530#0" to="193253427#0"/>
  <flow id="car_34241530#0_198876043#2_0001cb16" type="car" begin="0" end="3600" vehsPerHour="20.69" departLane="best" departPos="random" departSpeed="0" from="34241530#0" to="198876043#2"/>
  <flow id="car_34241530#0_28231434_0001cb16" type="car" begin="0" end="3600" vehsPerHour="17.47" departLane="best" departPos="random" departSpeed="0" from="34241530#0" to="28231434"/>
  <flow id="car_34241530#0_23241821#0_0001cb16" type="car" begin="0" end="3600" vehsPerHour="13.24" departLane="best" departPos="random" departSpeed="0" from="34241530#0" to="23241821#0"/>
  <flow id="motorcycle_34241530#0_198876042#0_0001cb16" type="motorcycle" begin="0" end="3600" vehsPerHour="80.41" departLane="best" departPos="random" departSpeed="0" from="34241530#0" to="198876042#0"/>
  <flow id="motorcycle_34241530#0_193253427#0_0001cb16" type="motorcycle" begin="0" end="3600" vehsPerHour="66.92" departLane="best" departPos="random" departSpeed="0" from="34241530#0" to="193253427#0"/>
  <flow id="motorcycle_34241530#0_198876043#2_0001cb16" type="motorcycle" begin="0" end="3600" vehsPerHour="57.64" departLane="best" departPos="random" departSpeed="0" from="34241530#0" to="198876043#2"/>
  <flow id="motorcycle_34241530#0_28231434_0001cb16" type="motorcycle" begin="0" end="3600" vehsPerHour="54.26" departLane="best" departPos="random" departSpeed="0" from="34241530#0" to="28231434"/>
  <flow id="motorcycle_34241530#0_23241821#0_0001cb16" type="motorcycle" begin="0" end="3600" vehsPerHour="47.91" departLane="best" departPos="random" departSpeed="0" from="34241530#0" to="23241821#0"/>
  <flow id="truck_34241530#0_198876042#0_0001cb16" type="truck" begin="0" end="3600" vehsPerHour="11.34" departLane="best" departPos="random" departSpeed="0" from="34241530#0" to="198876042#0"/>
</routes>
