<routes>
<vType id="car" vClass="passenger" accel="2.6" decel="4.5" sigma="0.5" length="5.0" maxSpeed="13.9"/>
<vType id="motorcycle" vClass="motorcycle" accel="3.0" decel="5.0" sigma="0.5" length="2.0" maxSpeed="14.0"/>
<vType id="truck" vClass="truck" accel="1.2" decel="3.5" sigma="0.5" length="12.0" maxSpeed="10.0"/>

  <flow id="car_222682222#1_193253427#0_000d1e67" type="car" begin="0" end="3600" vehsPerHour="62.96" departLane="best" departPos="random" departSpeed="0" from="222682222#1" to="193253427#0"/>
  <flow id="car_222682222#1_198876043#0_000d1e67" type="car" begin="0" end="3600" vehsPerHour="48.05" departLane="best" departPos="random" departSpeed="0" from="222682222#1" to="198876043#0"/>
  <flow id="car_222682222#1_28231434_000d1e67" type="car" begin="0" end="3600" vehsPerHour="48.11" departLane="best" departPos="random" departSpeed="0" from="222682222#1" to="28231434"/>
  <flow id="car_222682222#1_23241821#0_000d1e67" type="car" begin="0" end="3600" vehsPerHour="41.51" departLane="best" departPos="random" departSpeed="0" from="222682222#1" to="23241821#0"/>
  <flow id="car_222682222#1_198876042#0_000d1e67" type="car" begin="0" end="3600" vehsPerHour="34.99" departLane="best" departPos="random" departSpeed="0" from="222682222#1" to="198876042#0"/>
  <flow id="motorcycle_222682222#1_193253427#0_000d1e67" type="motorcycle" begin="0" end="3600" vehsPerHour="170.74" departLane="best" departPos="random" departSpeed="0" from="222682222#1" to="193253427#0"/>
  <flow id="motorcycle_222682222#1_198876043#0_000d1e67" type="motorcycle" begin="0" end="3600" vehsPerHour="155.55" departLane="best" departPos="random" departSpeed="0" from="222682222#1" to="198876043#0"/>
  <flow id="motorcycle_222682222#1_28231434_000d1e67" type="motorcycle" begin="0" end="3600" vehsPerHour="136.86" departLane="best" departPos="random" departSpeed="0" from="222682222#1" to="28231434"/>
  <flow id="motorcycle_222682222#1_23241821#0_000d1e67" type="motorcycle" begin="0" end="3600" vehsPerHour="112.59" departLane="best" departPos="random" departSpeed="0" from="222682222#1" to="23241821#0"/>
  <flow id="motorcycle_222682222#1_198876042#0_000d1e67" type="motorcycle" begin="0" end="3600" vehsPerHour="96.04" departLane="best" departPos="random" departSpeed="0" from="222682222#1" to="198876042#0"/>
  <flow id="car_193253433#2_198876043#0_000d1e67" type="car" begin="0" end="3600" vehsPerHour="39.56" departLane="best" departPos="random" departSpeed="0" from="193253433#2" to="198876043#0"/>
  <flow id="car_193253433#2_28231434_000d1e67" type="car" begin="0" end="3600" vehsPerHour="34.14" departLane="best" departPos="random" departSpeed="0" from="193253433#2" to="28231434"/>
  <flow id="car_193253433#2_23241821#0_000d1e67" type="car" begin="0" end="3600" vehsPerHour="34.09" departLane="best" departPos="random" departSpeed="0" from="193253433#2" to="23241821#0"/>
  <flow id="car_193253433#2_198876042#0_000d1e67" type="car" begin="0" end="3600" vehsPerHour="27.73" departLane="best" departPos="random" departSpeed="0" from="193253433#2" to="198876042#0"/>
  <flow id="car_193253433#2_193253427#0_000d1e67" type="car" begin="0" end="3600" vehsPerHour="23.83" departLane="best" departPos="random" departSpeed="0" from="193253433#2" to="193253427#0"/>
  <flow id="motorcycle_193253433#2_198876043#0_000d1e67" type="motorcycle" begin="0" end="3600" vehsPerHour="120.21" departLane="best" departPos="random" departSpeed="0" from="193253433#2" to="198876043#0"/>
  <flow id="motorcycle_193253433#2_28231434_000d1e67" type="motorcycle" begin="0" end="3600" vehsPerHour="104.02" departLane="best" departPos="random" departSpeed="0" from="193253433#2" to="28231434"/>
  <flow id="motorcycle_193253433#2_23241821#0_000d1e67" type="motorcycle" begin="0" end="3600" vehsPerHour="90.64" departLane="best" departPos="random" departSpeed="0" from="193253433#2" to="23241821#0"/>
  <flow id="motorcycle_193253433#2_198876042#0_000d1e67" type="motorcycle" begin="0" end="3600" vehsPerHour="79.26" departLane="best" departPos="random" departSpeed="0" from="193253433#2" to="198876042#0"/>
  <flow id="motorcycle_193253433#2_193253427#0_000d1e67" type="motorcycle" begin="0" end="3600" vehsPerHour="66.84" departLane="best" departPos="random" departSpeed="0" from="193253433#2" to="193253427#0"/>
  <flow id="car_198876045#1_28231434_000d1e67" type="car" begin="0" end="3600" vehsPerHour="34.36" departLane="best" departPos="random" departSpeed="0" from="198876045#1" to="28231434"/>
  <flow id="car_198876045#1_23241821#0_000d1e67" type="car" begin="0" end="3600" vehsPerHour="28.96" departLane="best" departPos="random" departSpeed="0" from="198876045#1" to="23241821#0"/>
  <flow id="car_198876045#1_198876042#0_000d1e67" type="car" begin="0" end="3600" vehsPerHour="27.90" departLane="best" departPos="random" departSpeed="0" from="198876045#1" to="198876042#0"/>
  <flow id="car_198876045#1_193253427#0_000d1e67" type="car" begin="0" end="3600" vehsPerHour="24.12" departLane="best" departPos="random" departSpeed="0" from="198876045#1" to="193253427#0"/>
  <flow id="car_198876045#1_198876043#2_000d1e67" type="car" begin="0" end="3600" vehsPerHour="20.36" departLane="best" departPos="random" departSpeed="0" from="198876045#1" to="198876043#2"/>
  <flow id="motorcycle_198876045#1_28231434_000d1e67" type="motorcycle" begin="0" end="3600" vehsPerHour="100.98" departLane="best" departPos="random" departSpeed="0" from="198876045#1" to="28231434"/>
  <flow id="motorcycle_198876045#1_23241821#0_000d1e67" type="motorcycle" begin="0" end="3600" vehsPerHour="84.44" departLane="best" departPos="random" departSpeed="0" from="198876045#1" to="23241821#0"/>
  <flow id="motorcycle_198876045#1_198876042#0_000d1e67" type="motorcycle" begin="0" end="3600" vehsPerHour="83.61" departLane="best" departPos="random" departSpeed="0" from="198876045#1" to="198876042#0"/>
  <flow id="motorcycle_198876045#1_193253427#0_000d1e67" type="motorcycle" begin="0" end="3600" vehsPerHour="73.00" departLane="best" departPos="random" departSpeed="0" from="198876045#1" to="193253427#0"/>
  <flow id="motorcycle_198876045#1_198876043#2_000d1e67" type="motorcycle" begin="0" end="3600" vehsPerHour="70.32" departLane="best" departPos="random" departSpeed="0" from="198876045#1" to="198876043#2"/>
  <flow id="car_-28231434_23241821#0_000d1e67" type="car" begin="0" end="3600" vehsPerHour="23.24" departLane="best" departPos="random" departSpeed="0" from="-28231434" to="23241821#0"/>
  <flow id="car_-28231434_198876042#0_000d1e67" type="car" begin="0" end="3600" vehsPerHour="20.11" departLane="best" departPos="random" departSpeed="0" from="-28231434" to="198876042#0"/>
  <flow id="car_-28231434_193253427#0_000d1e67" type="car" begin="0" end="3600" vehsPerHour="16.65" departLane="best" departPos="random" departSpeed="0" from="-28231434" to="193253427#0"/>
  <flow id="car_-28231434_198876043#2_000d1e67" type="car" begin="0" end="3600" vehsPerHour="16.70" departLane="best" departPos="random" departSpeed="0" from="-28231434" to="198876043#2"/>
  <flow id="car_-28231434_28231434_000d1e67" type="car" begin="0" end="3600" vehsPerHour="14.15" departLane="best" departPos="random" departSpeed="0" from="-28231434" to="28231434"/>
  <flow id="motorcycle_-28231434_23241821#0_000d1e67" type="motorcycle" begin="0" end="3600" vehsPerHour="68.90" departLane="best" departPos="random" departSpeed="0" from="-28231434" to="23241821#0"/>
  <flow id="motorcycle_-28231434_198876042#0_000d1e67" type="motorcycle" begin="0" end="3600" vehsPerHour="60.51" departLane="best" departPos="random" departSpeed="0" from="-28231434" to="198876042#0"/>
  <flow id="motorcycle_-28231434_193253427#0_000d1e67" type="motorcycle" begin="0" end="3600" vehsPerHour="55.65" departLane="best" departPos="random" departSpeed="0" from="-28231434" to="193253427#0"/>
  <flow id="motorcycle_-28231434_198876043#2_000d1e67" type="motorcycle" begin="0" end="3600" vehsPerHour="46.69" departLane="best" departPos="random" departSpeed="0" from="-28231434" to="198876043#2"/>
  <flow id="motorcycle_-28231434_28231434_000d1e67" type="motorcycle" begin="0" end="3600" vehsPerHour="41.68" departLane="best" departPos="random" departSpeed="0" from="-28231434" to="28231434"/>
  <flow id="car_-55029244#0_198876042#0_000d1e67" type="car" begin="0" end="3600" vehsPerHour="26.66" departLane="best" departPos="random" departSpeed="0" from="-55029244#0" to="198876042#0"/>
  <flow id="car_-55029244#0_193253427#0_000d1e67" type="car" begin="0" end="3600" vehsPerHour="24.51" departLane="best" departPos="random" departSpeed="0" from="-55029244#0" to="193253427#0"/>
  <flow id="car_-55029244#0_198876043#2_000d1e67" type="car" begin="0" end="3600" vehsPerHour="21.19" departLane="best" departPos="random" departSpeed="0" from="-55029244#0" to="198876043#2"/>
  <flow id="car_-55029244#0_28231434_000d1e67" type="car" begin="0" end="3600" vehsPerHour="16.09" departLane="best" departPos="random" departSpeed="0" from="-55029244#0" to="28231434"/>
  <flow id="car_-55029244#0_23241821#0_000d1e67" type="car" begin="0" end="3600" vehsPerHour="13.73" departLane="best" departPos="random" departSpeed="0" from="-55029244#0" to="23241821#0"/>
  <flow id="motorcycle_-55029244#0_198876042#0_000d1e67" type="motorcycle" begin="0" end="3600" vehsPerHour="82.81" departLane="best" departPos="random" departSpeed="0" from="-55029244#0" to="198876042#0"/>
  <flow id="motorcycle_-55029244#0_193253427#0_000d1e67" type="motorcycle" begin="0" end="3600" vehsPerHour="67.12" departLane="best" departPos="random" departSpeed="0" from="-55029244#0" to="193253427#0"/>
  <flow id="motorcycle_-55029244#0_198876043#2_000d1e67" type="motorcycle" begin="0" end="3600" vehsPerHour="59.67" departLane="best" departPos="random" departSpeed="0" from="-55029244#0" to="198876043#2"/>
  <flow id="motorcycle_-55029244#0_28231434_000d1e67" type="motorcycle" begin="0" end="3600" vehsPerHour="54.63" departLane="best" departPos="random" departSpeed="0" from="-55029244#0" to="28231434"/>
  <flow id="motorcycle_-55029244#0_23241821#0_000d1e67" type="motorcycle" begin="0" end="3600" vehsPerHour="47.36" departLane="best" departPos="random" departSpeed="0" from="-55029244#0" to="23241821#0"/>
  <flow id="car_34241530#0_198876042#0_000d1e67" type="car" begin="0" end="3600" vehsPerHour="27.48" departLane="best" departPos="random" departSpeed="0" from="34241530#0" to="198876042#0"/>
  <flow id="car_34241530#0_193253427#0_000d1e67" type="car" begin="0" end="3600" vehsPerHour="22.61" departLane="best" departPos="random" departSpeed="0" from="34241530#0" to="193253427#0"/>
  <flow id="car_34241530#0_198876043#2_000d1e67" type="car" begin="0" end="3600" vehsPerHour="20.54" departLane="best" departPos="random" departSpeed="0" from="34241530#0" to="198876043#2"/>
  <flow id="car_34241530#0_28231434_000d1e67" type="car" begin="0" end="3600" vehsPerHour="16.64" departLane="best" departPos="random" departSpeed="0" from="34241530#0" to="28231434"/>
  <flow id="car_34241530#0_23241821#0_000d1e67" type="car" begin="0" end="3600" vehsPerHour="12.90" departLane="best" departPos="random" departSpeed="0" from="34241530#0" to="23241821#0"/>
  <flow id="motorcycle_34241530#0_198876042#0_000d1e67" type="motorcycle" begin="0" end="3600" vehsPerHour="78.03" departLane="best" departPos="random" departSpeed="0" from="34241530#0" to="198876042#0"/>
  <flow id="motorcycle_34241530#0_193253427#0_000d1e67" type="motorcycle" begin="0" end="3600" vehsPerHour="65.95" departLane="best" departPos="random" departSpeed="0" from="34241530#0" to="193253427#0"/>
  <flow id="motorcycle_34241530#0_198876043#2_000d1e67" type="motorcycle" begin="0" end="3600" vehsPerHour="58.94" departLane="best" departPos="random" departSpeed="0" from="34241530#0" to="198876043#2"/>
  <flow id="motorcycle_34241530#0_28231434_000d1e67" type="motorcycle" begin="0" end="3600" vehsPerHour="52.74" departLane="best" departPos="random" departSpeed="0" from="34241530#0" to="28231434"/>
  <flow id="motorcycle_34241530#0_23241821#0_000d1e67" type="motorcycle" begin="0" end="3600" vehsPerHour="46.16" departLane="best" departPos="random" departSpeed="0" from="34241530#0" to="23241821#0"/>
  <flow id="truck_34241530#0_198876042#0_000d1e67" type="truck" begin="0" end="3600" vehsPerHour="11.23" departLane="best" departPos="random" departSpeed="0" from="34241530#0" to="198876042#0"/>
</routes>
