<routes>
<vType id="car" vClass="passenger" accel="2.6" decel="4.5" sigma="0.5" length="5.0" maxSpeed="13.9"/>
<vType id="motorcycle" vClass="motorcycle" accel="3.0" decel="5.0" sigma="0.5" length="2.0" maxSpeed="14.0"/>
<vType id="truck" vClass="truck" accel="1.2" decel="3.5" sigma="0.5" length="12.0" maxSpeed="10.0"/>

  <flow id="car_222682222#1_193253427#0_00002ea8" type="car" begin="0" end="3600" vehsPerHour="60.60" departLane="best" departPos="random" departSpeed="0" from="222682222#1" to="193253427#0"/>
  <flow id="car_222682222#1_198876043#0_00002ea8" type="car" begin="0" end="3600" vehsPerHour="49.15" departLane="best" departPos="random" departSpeed="0" from="222682222#1" to="198876043#0"/>
  <flow id="car_222682222#1_28231434_00002ea8" type="car" begin="0" end="3600" vehsPerHour="52.79" departLane="best" departPos="random" departSpeed="0" from="222682222#1" to="28231434"/>
  <flow id="car_222682222#1_23241821#0_00002ea8" type="car" begin="0" end="3600" vehsPerHour="40.52" departLane="best" departPos="random" departSpeed="0" from="222682222#1" to="23241821#0"/>
  <flow id="car_222682222#1_198876042#0_00002ea8" type="car" begin="0" end="3600" vehsPerHour="32.79" departLane="best" departPos="random" departSpeed="0" from="222682222#1" to="198876042#0"/>
  <flow id="motorcycle_222682222#1_193253427#0_00002ea8" type="motorcycle" begin="0" end="3600" vehsPerHour="180.26" departLane="best" departPos="random" departSpeed="0" from="222682222#1" to="193253427#0"/>
  <flow id="motorcycle_222682222#1_198876043#0_00002ea8" type="motorcycle" begin="0" end="3600" vehsPerHour="154.28" departLane="best" departPos="random" departSpeed="0" from="222682222#1" to="198876043#0"/>
  <flow id="motorcycle_222682222#1_28231434_00002ea8" type="motorcycle" begin="0" end="3600" vehsPerHour="139.12" departLane="best" departPos="random" departSpeed="0" from="222682222#1" to="28231434"/>
  <flow id="motorcycle_222682222#1_23241821#0_00002ea8" type="motorcycle" begin="0" end="3600" vehsPerHour="116.60" departLane="best" departPos="random" departSpeed="0" from="222682222#1" to="23241821#0"/>
  <flow id="motorcycle_222682222#1_198876042#0_00002ea8" type="motorcycle" begin="0" end="3600" vehsPerHour="105.12" departLane="best" departPos="random" departSpeed="0" from="222682222#1" to="198876042#0"/>
  <flow id="car_193253433#2_198876043#0_00002ea8" type="car" begin="0" end="3600" vehsPerHour="42.07" departLane="best" departPos="random" departSpeed="0" from="193253433#2" to="198876043#0"/>
  <flow id="car_193253433#2_28231434_00002ea8" type="car" begin="0" end="3600" vehsPerHour="35.11" departLane="best" departPos="random" departSpeed="0" from="193253433#2" to="28231434"/>
  <flow id="car_193253433#2_23241821#0_00002ea8" type="car" begin="0" end="3600" vehsPerHour="32.08" departLane="best" departPos="random" departSpeed="0" from="193253433#2" to="23241821#0"/>
  <flow id="car_193253433#2_198876042#0_00002ea8" type="car" begin="0" end="3600" vehsPerHour="27.24" departLane="best" departPos="random" departSpeed="0" from="193253433#2" to="198876042#0"/>
  <flow id="car_193253433#2_193253427#0_00002ea8" type="car" begin="0" end="3600" vehsPerHour="23.46" departLane="best" departPos="random" departSpeed="0" from="193253433#2" to="193253427#0"/>
  <flow id="motorcycle_193253433#2_198876043#0_00002ea8" type="motorcycle" begin="0" end="3600" vehsPerHour="111.69" departLane="best" departPos="random" departSpeed="0" from="193253433#2" to="198876043#0"/>
  <flow id="motorcycle_193253433#2_28231434_00002ea8" type="motorcycle" begin="0" end="3600" vehsPerHour="105.58" departLane="best" departPos="random" departSpeed="0" from="193253433#2" to="28231434"/>
  <flow id="motorcycle_193253433#2_23241821#0_00002ea8" type="motorcycle" begin="0" end="3600" vehsPerHour="93.76" departLane="best" departPos="random" departSpeed="0" from="193253433#2" to="23241821#0"/>
  <flow id="motorcycle_193253433#2_198876042#0_00002ea8" type="motorcycle" begin="0" end="3600" vehsPerHour="79.77" departLane="best" departPos="random" departSpeed="0" from="193253433#2" to="198876042#0"/>
  <flow id="motorcycle_193253433#2_193253427#0_00002ea8" type="motorcycle" begin="0" end="3600" vehsPerHour="66.81" departLane="best" departPos="random" departSpeed="0" from="193253433#2" to="193253427#0"/>
  <flow id="car_198876045#1_28231434_00002ea8" type="car" begin="0" end="3600" vehsPerHour="32.59" departLane="best" departPos="random" departSpeed="0" from="198876045#1" to="28231434"/>
  <flow id="car_198876045#1_23241821#0_00002ea8" type="car" begin="0" end="3600" vehsPerHour="29.67" departLane="best" departPos="random" departSpeed="0" from="198876045#1" to="23241821#0"/>
  <flow id="car_198876045#1_198876042#0_00002ea8" type="car" begin="0" end="3600" vehsPerHour="26.92" departLane="best" departPos="random" departSpeed="0" from="198876045#1" to="198876042#0"/>
  <flow id="car_198876045#1_193253427#0_00002ea8" type="car" begin="0" end="3600" vehsPerHour="24.63" departLane="best" departPos="random" departSpeed="0" from="198876045#1" to="193253427#0"/>
  <flow id="car_198876045#1_198876043#2_00002ea8" type="car" begin="0" end="3600" vehsPerHour="19.27" departLane="best" departPos="random" departSpeed="0" from="198876045#1" to="198876043#2"/>
  <flow id="motorcycle_198876045#1_28231434_00002ea8" type="motorcycle" begin="0" end="3600" vehsPerHour="97.01" departLane="best" departPos="random" departSpeed="0" from="198876045#1" to="28231434"/>
  <flow id="motorcycle_198876045#1_23241821#0_00002ea8" type="motorcycle" begin="0" end="3600" vehsPerHour="88.66" departLane="best" departPos="random" departSpeed="0" from="198876045#1" to="23241821#0"/>
  <flow id="motorcycle_198876045#1_198876042#0_00002ea8" type="motorcycle" begin="0" end="3600" vehsPerHour="80.51" departLane="best" departPos="random" departSpeed="0" from="198876045#1" to="198876042#0"/>
  <flow id="motorcycle_198876045#1_193253427#0_00002ea8" type="motorcycle" begin="0" end="3600" vehsPerHour="75.21" departLane="best" departPos="random" departSpeed="0" from="198876045#1" to="193253427#0"/>
  <flow id="motorcycle_198876045#1_198876043#2_00002ea8" type="motorcycle" begin="0" end="3600" vehsPerHour="66.47" departLane="best" departPos="random" departSpeed="0" from="198876045#1" to="198876043#2"/>
  <flow id="car_-28231434_23241821#0_00002ea8" type="car" begin="0" end="3600" vehsPerHour="23.54" departLane="best" departPos="random" departSpeed="0" from="-28231434" to="23241821#0"/>
  <flow id="car_-28231434_198876042#0_00002ea8" type="car" begin="0" end="3600" vehsPerHour="20.34" departLane="best" departPos="random" departSpeed="0" from="-28231434" to="198876042#0"/>
  <flow id="car_-28231434_193253427#0_00002ea8" type="car" begin="0" end="3600" vehsPerHour="16.16" departLane="best" departPos="random" departSpeed="0" from="-28231434" to="193253427#0"/>
  <flow id="car_-28231434_198876043#2_00002ea8" type="car" begin="0" end="3600" vehsPerHour="16.76" departLane="best" departPos="random" departSpeed="0" from="-28231434" to="198876043#2"/>
  <flow id="car_-28231434_28231434_00002ea8" type="car" begin="0" end="3600" vehsPerHour="13.81" departLane="best" departPos="random" departSpeed="0" from="-28231434" to="28231434"/>
  <flow id="motorcycle_-28231434_23241821#0_00002ea8" type="motorcycle" begin="0" end="3600" vehsPerHour="69.53" departLane="best" departPos="random" departSpeed="0" from="-28231434" to="23241821#0"/>
  <flow id="motorcycle_-28231434_198876042#0_00002ea8" type="motorcycle" begin="0" end="3600" vehsPerHour="57.71" departLane="best" departPos="random" departSpeed="0" from="-28231434" to="198876042#0"/>
  <flow id="motorcycle_-28231434_193253427#0_00002ea8" type="motorcycle" begin="0" end="3600" vehsPerHour="53.52" departLane="best" departPos="random" departSpeed="0" from="-28231434" to="193253427#0"/>
  <flow id="motorcycle_-28231434_198876043#2_00002ea8" type="motorcycle" begin="0" end="3600" vehsPerHour="47.90" departLane="best" departPos="random" departSpeed="0" from="-28231434" to="198876043#2"/>
  <flow id="motorcycle_-28231434_28231434_00002ea8" type="motorcycle" begin="0" end="3600" vehsPerHour="41.64" departLane="best" departPos="random" departSpeed="0" from="-28231434" to="28231434"/>
  <flow id="car_-55029244#0_198876042#0_00002ea8" type="car" begin="0" end="3600" vehsPerHour="26.35" departLane="best" departPos="random" departSpeed="0" from="-55029244#0" to="198876042#0"/>
  <flow id="car_-55029244#0_193253427#0_00002ea8" type="car" begin="0" end="3600" vehsPerHour="24.69" departLane="best" departPos="random" departSpeed="0" from="-55029244#0" to="193253427#0"/>
  <flow id="car_-55029244#0_198876043#2_00002ea8" type="car" begin="0" end="3600" vehsPerHour="19.66" departLane="best" departPos="random" departSpeed="0" from="-55029244#0" to="198876043#2"/>
  <flow id="car_-55029244#0_28231434_00002ea8" type="car" begin="0" end="3600" vehsPerHour="16.76" departLane="best" departPos="random" departSpeed="0" from="-55029244#0" to="28231434"/>
  <flow id="car_-55029244#0_23241821#0_00002ea8" type="car" begin="0" end="3600" vehsPerHour="13.84" departLane="best" departPos="random" departSpeed="0" from="-55029244#0" to="23241821#0"/>
  <flow id="motorcycle_-55029244#0_198876042#0_00002ea8" type="motorcycle" begin="0" end="3600" vehsPerHour="80.89" departLane="best" departPos="random" departSpeed="0" from="-55029244#0" to="198876042#0"/>
  <flow id="motorcycle_-55029244#0_193253427#0_00002ea8" type="motorcycle" begin="0" end="3600" vehsPerHour="66.01" departLane="best" departPos="random" departSpeed="0" from="-55029244#0" to="193253427#0"/>
  <flow id="motorcycle_-55029244#0_198876043#2_00002ea8" type="motorcycle" begin="0" end="3600" vehsPerHour="57.64" departLane="best" departPos="random" departSpeed="0" from="-55029244#0" to="198876043#2"/>
  <flow id="motorcycle_-55029244#0_28231434_00002ea8" type="motorcycle" begin="0" end="3600" vehsPerHour="55.26" departLane="best" departPos="random" departSpeed="0" from="-55029244#0" to="28231434"/>
  <flow id="motorcycle_-55029244#0_23241821#0_00002ea8" type="motorcycle" begin="0" end="3600" vehsPerHour="46.77" departLane="best" departPos="random" departSpeed="0" from="-55029244#0" to="23241821#0"/>
  <flow id="car_34241530#0_198876042#0_00002ea8" type="car" begin="0" end="3600" vehsPerHour="26.65" departLane="best" departPos="random" departSpeed="0" from="34241530#0" to="198876042#0"/>
  <flow id="car_34241530#0_193253427#0_00002ea8" type="car" begin="0" end="3600" vehsPerHour="24.12" departLane="best" departPos="random" departSpeed="0" from="34241530#0" to="193253427#0"/>
  <flow id="car_34241530#0_198876043#2_00002ea8" type="car" begin="0" end="3600" vehsPerHour="20.30" departLane="best" departPos="random" departSpeed="0" from="34241530#0" to="198876043#2"/>
  <flow id="car_34241530#0_28231434_00002ea8" type="car" begin="0" end="3600" vehsPerHour="17.12" departLane="best" departPos="random" departSpeed="0" from="34241530#0" to="28231434"/>
  <flow id="car_34241530#0_23241821#0_00002ea8" type="car" begin="0" end="3600" vehsPerHour="12.96" departLane="best" departPos="random" departSpeed="0" from="34241530#0" to="23241821#0"/>
  <flow id="motorcycle_34241530#0_198876042#0_00002ea8" type="motorcycle" begin="0" end="3600" vehsPerHour="82.13" departLane="best" departPos="random" departSpeed="0" from="34241530#0" to="198876042#0"/>
  <flow id="motorcycle_34241530#0_193253427#0_00002ea8" type="motorcycle" begin="0" end="3600" vehsPerHour="67.18" departLane="best" departPos="random" departSpeed="0" from="34241530#0" to="193253427#0"/>
  <flow id="motorcycle_34241530#0_198876043#2_00002ea8" type="motorcycle" begin="0" end="3600" vehsPerHour="58.17" departLane="best" departPos="random" departSpeed="0" from="34241530#0" to="198876043#2"/>
  <flow id="motorcycle_34241530#0_28231434_00002ea8" type="motorcycle" begin="0" end="3600" vehsPerHour="56.02" departLane="best" departPos="random" departSpeed="0" from="34241530#0" to="28231434"/>
  <flow id="motorcycle_34241530#0_23241821#0_00002ea8" type="motorcycle" begin="0" end="3600" vehsPerHour="46.35" departLane="best" departPos="random" departSpeed="0" from="34241530#0" to="23241821#0"/>
  <flow id="truck_34241530#0_198876042#0_00002ea8" type="truck" begin="0" end="3600" vehsPerHour="11.30" departLane="best" departPos="random" departSpeed="0" from="34241530#0" to="198876042#0"/>
</routes>
