<routes>
<vType id="car" vClass="passenger" accel="2.6" decel="4.5" sigma="0.5" length="5.0" maxSpeed="13.9"/>
<vType id="motorcycle" vClass="motorcycle" accel="3.0" decel="5.0" sigma="0.5" length="2.0" maxSpeed="14.0"/>
<vType id="truck" vClass="truck" accel="1.2" decel="3.5" sigma="0.5" length="12.0" maxSpeed="10.0"/>

  <flow id="car_222682222#1_193253427#0_0007b9e6" type="car" begin="0" end="3600" vehsPerHour="62.01" departLane="best" departPos="random" departSpeed="0" from="222682222#1" to="193253427#0"/>
  <flow id="car_222682222#1_198876043#0_0007b9e6" type="car" begin="0" end="3600" vehsPerHour="53.04" departLane="best" departPos="random" departSpeed="0" from="222682222#1" to="198876043#0"/>
  <flow id="car_222682222#1_28231434_0007b9e6" type="car" begin="0" end="3600" vehsPerHour="50.27" departLane="best" departPos="random" departSpeed="0" from="222682222#1" to="28231434"/>
  <flow id="car_222682222#1_23241821#0_0007b9e6" type="car" begin="0" end="3600" vehsPerHour="42.31" departLane="best" departPos="random" departSpeed="0" from="222682222#1" to="23241821#0"/>
  <flow id="car_222682222#1_198876042#0_0007b9e6" type="car" begin="0" end="3600" vehsPerHour="34.74" departLane="best" departPos="random" departSpeed="0" from="222682222#1" to="198876042#0"/>
  <flow id="motorcycle_222682222#1_193253427#0_0007b9e6" type="motorcycle" begin="0" end="3600" vehsPerHour="174.65" departLane="best" departPos="random" departSpeed="0" from="222682222#1" to="193253427#0"/>
  <flow id="motorcycle_222682222#1_198876043#0_0007b9e6" type="motorcycle" begin="0" end="3600" vehsPerHour="154.37" departLane="best" departPos="random" departSpeed="0" from="222682222#1" to="198876043#0"/>
  <flow id="motorcycle_222682222#1_28231434_0007b9e6" type="motorcycle" begin="0" end="3600" vehsPerHour="144.68" departLane="best" departPos="random" departSpeed="0" from="222682222#1" to="28231434"/>
  <flow id="motorcycle_222682222#1_23241821#0_0007b9e6" type="motorcycle" begin="0" end="3600" vehsPerHour="109.26" departLane="best" departPos="random" departSpeed="0" from="222682222#1" to="23241821#0"/>
  <flow id="motorcycle_222682222#1_198876042#0_0007b9e6" type="motorcycle" begin="0" end="3600" vehsPerHour="102.76" departLane="best" departPos="random" departSpeed="0" from="222682222#1" to="198876042#0"/>
  <flow id="car_193253433#2_198876043#0_0007b9e6" type="car" begin="0" end="3600" vehsPerHour="42.16" departLane="best" departPos="random" departSpeed="0" from="193253433#2" to="198876043#0"/>
  <flow id="car_193253433#2_28231434_0007b9e6" type="car" begin="0" end="3600" vehsPerHour="34.32" departLane="best" departPos="random" departSpeed="0" from="193253433#2" to="28231434"/>
  <flow id="car_193253433#2_23241821#0_0007b9e6" type="car" begin="0" end="3600" vehsPerHour="34.54" departLane="best" departPos="random" departSpeed="0" from="193253433#2" to="23241821#0"/>
  <flow id="car_193253433#2_198876042#0_0007b9e6" type="car" begin="0" end="3600" vehsPerHour="26.94" departLane="best" departPos="random" departSpeed="0" from="193253433#2" to="198876042#0"/>
  <flow id="car_193253433#2_193253427#0_0007b9e6" type="car" begin="0" end="3600" vehsPerHour="23.48" departLane="best" departPos="random" departSpeed="0" from="193253433#2" to="193253427#0"/>
  <flow id="motorcycle_193253433#2_198876043#0_0007b9e6" type="motorcycle" begin="0" end="3600" vehsPerHour="116.46" departLane="best" departPos="random" departSpeed="0" from="193253433#2" to="198876043#0"/>
  <flow id="motorcycle_193253433#2_28231434_0007b9e6" type="motorcycle" begin="0" end="3600" vehsPerHour="101.74" departLane="best" departPos="random" departSpeed="0" from="193253433#2" to="28231434"/>
  <flow id="motorcycle_193253433#2_23241821#0_0007b9e6" type="motorcycle" begin="0" end="3600" vehsPerHour="90.10" departLane="best" departPos="random" departSpeed="0" from="193253433#2" to="23241821#0"/>
  <flow id="motorcycle_193253433#2_198876042#0_0007b9e6" type="motorcycle" begin="0" end="3600" vehsPerHour="82.58" departLane="best" departPos="random" departSpeed="0" from="193253433#2" to="198876042#0"/>
  <flow id="motorcycle_193253433#2_193253427#0_0007b9e6" type="motorcycle" begin="0" end="3600" vehsPerHour="68.49" departLane="best" departPos="random" departSpeed="0" from="193253433#2" to="193253427#0"/>
  <flow id="car_198876045#1_28231434_0007b9e6" type="car" begin="0" end="3600" vehsPerHour="35.22" departLane="best" departPos="random" departSpeed="0" from="198876045#1" to="28231434"/>
  <flow id="car_198876045#1_23241821#0_0007b9e6" type="car" begin="0" end="3600" vehsPerHour="30.78" departLane="best" departPos="random" departSpeed="0" from="198876045#1" to="23241821#0"/>
  <flow id="car_198876045#1_198876042#0_0007b9e6" type="car" begin="0" end="3600" vehsPerHour="25.97" departLane="best" departPos="random" departSpeed="0" from="198876045#1" to="198876042#0"/>
  <flow id="car_198876045#1_193253427#0_0007b9e6" type="car" begin="0" end="3600" vehsPerHour="23.83" departLane="best" departPos="random" departSpeed="0" from="198876045#1" to="193253427#0"/>
  <flow id="car_198876045#1_198876043#2_0007b9e6" type="car" begin="0" end="3600" vehsPerHour="20.06" departLane="best" departPos="random" departSpeed="0" from="198876045#1" to="198876043#2"/>
  <flow id="motorcycle_198876045#1_28231434_0007b9e6" type="motorcycle" begin="0" end="3600" vehsPerHour="103.38" departLane="best" departPos="random" departSpeed="0" from="198876045#1" to="28231434"/>
  <flow id="motorcycle_198876045#1_23241821#0_0007b9e6" type="motorcycle" begin="0" end="3600" vehsPerHour="83.90" departLane="best" departPos="random" departSpeed="0" from="198876045#1" to="23241821#0"/>
  <flow id="motorcycle_198876045#1_198876042#0_0007b9e6" type="motorcycle" begin="0" end="3600" vehsPerHour="79.64" departLane="best" departPos="random" departSpeed="0" from="198876045#1" to="198876042#0"/>
  <flow id="motorcycle_198876045#1_193253427#0_0007b9e6" type="motorcycle" begin="0" end="3600" vehsPerHour="76.27" departLane="best" departPos="random" departSpeed="0" from="198876045#1" to="193253427#0"/>
  <flow id="motorcycle_198876045#1_198876043#2_0007b9e6" type="motorcycle" begin="0" end="3600" vehsPerHour="64.38" departLane="best" departPos="random" departSpeed="0" from="198876045#1" to="198876043#2"/>
  <flow id="car_-28231434_23241821#0_0007b9e6" type="car" begin="0" end="3600" vehsPerHour="24.73" departLane="best" departPos="random" departSpeed="0" from="-28231434" to="23241821#0"/>
  <flow id="car_-28231434_198876042#0_0007b9e6" type="car" begin="0" end="3600" vehsPerHour="20.89" departLane="best" departPos="random" departSpeed="0" from="-28231434" to="198876042#0"/>
  <flow id="car_-28231434_193253427#0_0007b9e6" type="car" begin="0" end="3600" vehsPerHour="17.01" departLane="best" departPos="random" departSpeed="0" from="-28231434" to="193253427#0"/>
  <flow id="car_-28231434_198876043#2_0007b9e6" type="car" begin="0" end="3600" vehsPerHour="17.15" departLane="best" departPos="random" departSpeed="0" from="-28231434" to="198876043#2"/>
  <flow id="car_-28231434_28231434_0007b9e6" type="car" begin="0" end="3600" vehsPerHour="12.99" departLane="best" departPos="random" departSpeed="0" from="-28231434" to="28231434"/>
  <flow id="motorcycle_-28231434_23241821#0_0007b9e6" type="motorcycle" begin="0" end="3600" vehsPerHour="69.92" departLane="best" departPos="random" departSpeed="0" from="-28231434" to="23241821#0"/>
  <flow id="motorcycle_-28231434_198876042#0_0007b9e6" type="motorcycle" begin="0" end="3600" vehsPerHour="58.96" departLane="best" departPos="random" departSpeed="0" from="-28231434" to="198876042#0"/>
  <flow id="motorcycle_-28231434_193253427#0_0007b9e6" type="motorcycle" begin="0" end="3600" vehsPerHour="55.18" departLane="best" departPos="random" departSpeed="0" from="-28231434" to="193253427#0"/>
  <flow id="motorcycle_-28231434_198876043#2_0007b9e6" type="motorcycle" begin="0" end="3600" vehsPerHour="46.46" departLane="best" departPos="random" departSpeed="0" from="-28231434" to="198876043#2"/>
  <flow id="motorcycle_-28231434_28231434_0007b9e6" type="motorcycle" begin="0" end="3600" vehsPerHour="39.13" departLane="best" departPos="random" departSpeed="0" from="-28231434" to="28231434"/>
  <flow id="car_-55029244#0_198876042#0_0007b9e6" type="car" begin="0" end="3600" vehsPerHour="25.95" departLane="best" departPos="random" departSpeed="0" from="-55029244#0" to="198876042#0"/>
  <flow id="car_-55029244#0_193253427#0_0007b9e6" type="car" begin="0" end="3600" vehsPerHour="23.55" departLane="best" departPos="random" departSpeed="0" from="-55029244#0" to="193253427#0"/>
  <flow id="car_-55029244#0_198876043#2_0007b9e6" type="car" begin="0" end="3600" vehsPerHour="20.82" departLane="best" departPos="random" departSpeed="0" from="-55029244#0" to="198876043#2"/>
  <flow id="car_-55029244#0_28231434_0007b9e6" type="car" begin="0" end="3600" vehsPerHour="16.63" departLane="best" departPos="random" departSpeed="0" from="-55029244#0" to="28231434"/>
  <flow id="car_-55029244#0_23241821#0_0007b9e6" type="car" begin="0" end="3600" vehsPerHour="13.98" departLane="best" departPos="random" departSpeed="0" from="-55029244#0" to="23241821#0"/>
  <flow id="motorcycle_-55029244#0_198876042#0_0007b9e6" type="motorcycle" begin="0" end="3600" vehsPerHour="83.54" departLane="best" departPos="random" departSpeed="0" from="-55029244#0" to="198876042#0"/>
  <flow id="motorcycle_-55029244#0_193253427#0_0007b9e6" type="motorcycle" begin="0" end="3600" vehsPerHour="67.35" departLane="best" departPos="random" departSpeed="0" from="-55029244#0" to="193253427#0"/>
  <flow id="motorcycle_-55029244#0_198876043#2_0007b9e6" type="motorcycle" begin="0" end="3600" vehsPerHour="62.59" departLane="best" departPos="random" departSpeed="0" from="-55029244#0" to="198876043#2"/>
  <flow id="motorcycle_-55029244#0_28231434_0007b9e6" type="motorcycle" begin="0" end="3600" vehsPerHour="54.81" departLane="best" departPos="random" departSpeed="0" from="-55029244#0" to="28231434"/>
  <flow id="motorcycle_-55029244#0_23241821#0_0007b9e6" type="motorcycle" begin="0" end="3600" vehsPerHour="46.81" departLane="best" departPos="random" departSpeed="0" from="-55029244#0" to="23241821#0"/>
  <flow id="car_34241530#0_198876042#0_0007b9e6" type="car" begin="0" end="3600" vehsPerHour="27.67" departLane="best" departPos="random" departSpeed="0" from="34241530#0" to="198876042#0"/>
  <flow id="car_34241530#0_193253427#0_0007b9e6" type="car" begin="0" end="3600" vehsPerHour="22.52" departLane="best" departPos="random" departSpeed="0" from="34241530#0" to="193253427#0"/>
  <flow id="car_34241530#0_198876043#2_0007b9e6" type="car" begin="0" end="3600" vehsPerHour="20.61" departLane="best" departPos="random" departSpeed="0" from="34241530#0" to="198876043#2"/>
  <flow id="car_34241530#0_28231434_0007b9e6" type="car" begin="0" end="3600" vehsPerHour="16.23" departLane="best" departPos="random" departSpeed="0" from="34241530#0" to="28231434"/>
  <flow id="car_34241530#0_23241821#0_0007b9e6" type="car" begin="0" end="3600" vehsPerHour="12.99" departLane="best" departPos="random" departSpeed="0" from="34241530#0" to="23241821#0"/>
  <flow id="motorcycle_34241530#0_198876042#0_0007b9e6" type="motorcycle" begin="0" end="3600" vehsPerHour="78.92" departLane="best" departPos="random" departSpeed="0" from="34241530#0" to="198876042#0"/>
  <flow id="motorcycle_34241530#0_193253427#0_0007b9e6" type="motorcycle" begin="0" end="3600" vehsPerHour="67.92" departLane="best" departPos="random" departSpeed="0" from="34241530#0" to="193253427#0"/>
  <flow id="motorcycle_34241530#0_198876043#2_0007b9e6" type="motorcycle" begin="0" end="3600" vehsPerHour="59.10" departLane="best" departPos="random" departSpeed="0" from="34241530#0" to="198876043#2"/>
  <flow id="motorcycle_34241530#0_28231434_0007b9e6" type="motorcycle" begin="0" end="3600" vehsPerHour="55.49" departLane="best" departPos="random" departSpeed="0" from="34241530#0" to="28231434"/>
  <flow id="motorcycle_34241530#0_23241821#0_0007b9e6" type="motorcycle" begin="0" end="3600" vehsPerHour="47.66" departLane="best" departPos="random" departSpeed="0" from="34241530#0" to="23241821#0"/>
  <flow id="truck_34241530#0_198876042#0_0007b9e6" type="truck" begin="0" end="3600" vehsPerHour="11.42" departLane="best" departPos="random" departSpeed="0" from="34241530#0" to="198876042#0"/>
</routes>
