<routes>
<vType id="car" vClass="passenger" accel="2.6" decel="4.5" sigma="0.5" length="5.0" maxSpeed="13.9"/>
<vType id="motorcycle" vClass="motorcycle" accel="3.0" decel="5.0" sigma="0.5" length="2.0" maxSpeed="14.0"/>
<vType id="truck" vClass="truck" accel="1.2" decel="3.5" sigma="0.5" length="12.0" maxSpeed="10.0"/>

  <flow id="car_222682222#1_193253427#0_00044515" type="car" begin="0" end="3600" vehsPerHour="62.18" departLane="best" departPos="random" departSpeed="0" from="222682222#1" to="193253427#0"/>
  <flow id="car_222682222#1_198876043#0_00044515" type="car" begin="0" end="3600" vehsPerHour="52.60" departLane="best" departPos="random" departSpeed="0" from="222682222#1" to="198876043#0"/>
  <flow id="car_222682222#1_28231434_00044515" type="car" begin="0" end="3600" vehsPerHour="51.90" departLane="best" departPos="random" departSpeed="0" from="222682222#1" to="28231434"/>
  <flow id="car_222682222#1_23241821#0_00044515" type="car" begin="0" end="3600" vehsPerHour="41.70" departLane="best" departPos="random" departSpeed="0" from="222682222#1" to="23241821#0"/>
  <flow id="car_222682222#1_198876042#0_00044515" type="car" begin="0" end="3600" vehsPerHour="33.69" departLane="best" departPos="random" departSpeed="0" from="222682222#1" to="198876042#0"/>
  <flow id="motorcycle_222682222#1_193253427#0_00044515" type="motorcycle" begin="0" end="3600" vehsPerHour="171.59" departLane="best" departPos="random" departSpeed="0" from="222682222#1" to="193253427#0"/>
  <flow id="motorcycle_222682222#1_198876043#0_00044515" type="motorcycle" begin="0" end="3600" vehsPerHour="159.69" departLane="best" departPos="random" departSpeed="0" from="222682222#1" to="198876043#0"/>
  <flow id="motorcycle_222682222#1_28231434_00044515" type="motorcycle" begin="0" end="3600" vehsPerHour="135.95" departLane="best" departPos="random" departSpeed="0" from="222682222#1" to="28231434"/>
  <flow id="motorcycle_222682222#1_23241821#0_00044515" type="motorcycle" begin="0" end="3600" vehsPerHour="111.99" departLane="best" departPos="random" departSpeed="0" from="222682222#1" to="23241821#0"/>
  <flow id="motorcycle_222682222#1_198876042#0_00044515" type="motorcycle" begin="0" end="3600" vehsPerHour="100.13" departLane="best" departPos="random" departSpeed="0" from="222682222#1" to="198876042#0"/>
  <flow id="car_193253433#2_198876043#0_00044515" type="car" begin="0" end="3600" vehsPerHour="39.05" departLane="best" departPos="random" departSpeed="0" from="193253433#2" to="198876043#0"/>
  <flow id="car_193253433#2_28231434_00044515" type="car" begin="0" end="3600" vehsPerHour="34.08" departLane="best" departPos="random" departSpeed="0" from="193253433#2" to="28231434"/>
  <flow id="car_193253433#2_23241821#0_00044515" type="car" begin="0" end="3600" vehsPerHour="32.27" departLane="best" departPos="random" departSpeed="0" from="193253433#2" to="23241821#0"/>
  <flow id="car_193253433#2_198876042#0_00044515" type="car" begin="0" end="3600" vehsPerHour="28.05" departLane="best" departPos="random" departSpeed="0" from="193253433#2" to="198876042#0"/>
  <flow id="car_193253433#2_193253427#0_00044515" type="car" begin="0" end="3600" vehsPerHour="22.92" departLane="best" departPos="random" departSpeed="0" from="193253433#2" to="193253427#0"/>
  <flow id="motorcycle_193253433#2_198876043#0_00044515" type="motorcycle" begin="0" end="3600" vehsPerHour="112.13" departLane="best" departPos="random" departSpeed="0" from="193253433#2" to="198876043#0"/>
  <flow id="motorcycle_193253433#2_28231434_00044515" type="motorcycle" begin="0" end="3600" vehsPerHour="103.73" departLane="best" departPos="random" departSpeed="0" from="193253433#2" to="28231434"/>
  <flow id="motorcycle_193253433#2_23241821#0_00044515" type="motorcycle" begin="0" end="3600" vehsPerHour="97.79" departLane="best" departPos="random" departSpeed="0" from="193253433#2" to="23241821#0"/>
  <flow id="motorcycle_193253433#2_198876042#0_00044515" type="motorcycle" begin="0" end="3600" vehsPerHour="77.63" departLane="best" departPos="random" departSpeed="0" from="193253433#2" to="198876042#0"/>
  <flow id="motorcycle_193253433#2_193253427#0_00044515" type="motorcycle" begin="0" end="3600" vehsPerHour="66.98" departLane="best" departPos="random" departSpeed="0" from="193253433#2" to="193253427#0"/>
  <flow id="car_198876045#1_28231434_00044515" type="car" begin="0" end="3600" vehsPerHour="33.19" departLane="best" departPos="random" departSpeed="0" from="198876045#1" to="28231434"/>
  <flow id="car_198876045#1_23241821#0_00044515" type="car" begin="0" end="3600" vehsPerHour="30.26" departLane="best" departPos="random" departSpeed="0" from="198876045#1" to="23241821#0"/>
  <flow id="car_198876045#1_198876042#0_00044515" type="car" begin="0" end="3600" vehsPerHour="26.66" departLane="best" departPos="random" departSpeed="0" from="198876045#1" to="198876042#0"/>
  <flow id="car_198876045#1_193253427#0_00044515" type="car" begin="0" end="3600" vehsPerHour="22.83" departLane="best" departPos="random" departSpeed="0" from="198876045#1" to="193253427#0"/>
  <flow id="car_198876045#1_198876043#2_00044515" type="car" begin="0" end="3600" vehsPerHour="19.61" departLane="best" departPos="random" departSpeed="0" from="198876045#1" to="198876043#2"/>
  <flow id="motorcycle_198876045#1_28231434_00044515" type="motorcycle" begin="0" end="3600" vehsPerHour="102.80" departLane="best" departPos="random" departSpeed="0" from="198876045#1" to="28231434"/>
  <flow id="motorcycle_198876045#1_23241821#0_00044515" type="motorcycle" begin="0" end="3600" vehsPerHour="90.45" departLane="best" departPos="random" departSpeed="0" from="198876045#1" to="23241821#0"/>
  <flow id="motorcycle_198876045#1_198876042#0_00044515" type="motorcycle" begin="0" end="3600" vehsPerHour="78.91" departLane="best" departPos="random" departSpeed="0" from="198876045#1" to="198876042#0"/>
  <flow id="motorcycle_198876045#1_193253427#0_00044515" type="motorcycle" begin="0" end="3600" vehsPerHour="72.88" departLane="best" departPos="random" departSpeed="0" from="198876045#1" to="193253427#0"/>
  <flow id="motorcycle_198876045#1_198876043#2_00044515" type="motorcycle" begin="0" end="3600" vehsPerHour="70.39" departLane="best" departPos="random" departSpeed="0" from="198876045#1" to="198876043#2"/>
  <flow id="car_-28231434_23241821#0_00044515" type="car" begin="0" end="3600" vehsPerHour="24.70" departLane="best" departPos="random" departSpeed="0" from="-28231434" to="23241821#0"/>
  <flow id="car_-28231434_198876042#0_00044515" type="car" begin="0" end="3600" vehsPerHour="19.46" departLane="best" departPos="random" departSpeed="0" from="-28231434" to="198876042#0"/>
  <flow id="car_-28231434_193253427#0_00044515" type="car" begin="0" end="3600" vehsPerHour="16.61" departLane="best" departPos="random" departSpeed="0" from="-28231434" to="193253427#0"/>
  <flow id="car_-28231434_198876043#2_00044515" type="car" begin="0" end="3600" vehsPerHour="17.18" departLane="best" departPos="random" departSpeed="0" from="-28231434" to="198876043#2"/>
  <flow id="car_-28231434_28231434_00044515" type="car" begin="0" end="3600" vehsPerHour="13.90" departLane="best" departPos="random" departSpeed="0" from="-28231434" to="28231434"/>
  <flow id="motorcycle_-28231434_23241821#0_00044515" type="motorcycle" begin="0" end="3600" vehsPerHour="68.22" departLane="best" departPos="random" departSpeed="0" from="-28231434" to="23241821#0"/>
  <flow id="motorcycle_-28231434_198876042#0_00044515" type="motorcycle" begin="0" end="3600" vehsPerHour="60.15" departLane="best" departPos="random" departSpeed="0" from="-28231434" to="198876042#0"/>
  <flow id="motorcycle_-28231434_193253427#0_00044515" type="motorcycle" begin="0" end="3600" vehsPerHour="51.50" departLane="best" departPos="random" departSpeed="0" from="-28231434" to="193253427#0"/>
  <flow id="motorcycle_-28231434_198876043#2_00044515" type="motorcycle" begin="0" end="3600" vehsPerHour="47.71" departLane="best" departPos="random" departSpeed="0" from="-28231434" to="198876043#2"/>
  <flow id="motorcycle_-28231434_28231434_00044515" type="motorcycle" begin="0" end="3600" vehsPerHour="42.23" departLane="best" departPos="random" departSpeed="0" from="-28231434" to="28231434"/>
  <flow id="car_-55029244#0_198876042#0_00044515" type="car" begin="0" end="3600" vehsPerHour="27.53" departLane="best" departPos="random" departSpeed="0" from="-55029244#0" to="198876042#0"/>
  <flow id="car_-55029244#0_193253427#0_00044515" type="car" begin="0" end="3600" vehsPerHour="24.65" departLane="best" departPos="random" departSpeed="0" from="-55029244#0" to="193253427#0"/>
  <flow id="car_-55029244#0_198876043#2_00044515" type="car" begin="0" end="3600" vehsPerHour="20.99" departLane="best" departPos="random" departSpeed="0" from="-55029244#0" to="198876043#2"/>
  <flow id="car_-55029244#0_28231434_00044515" type="car" begin="0" end="3600" vehsPerHour="17.61" departLane="best" departPos="random" departSpeed="0" from="-55029244#0" to="28231434"/>
  <flow id="car_-55029244#0_23241821#0_00044515" type="car" begin="0" end="3600" vehsPerHour="12.88" departLane="best" departPos="random" departSpeed="0" from="-55029244#0" to="23241821#0"/>
  <flow id="motorcycle_-55029244#0_198876042#0_00044515" type="motorcycle" begin="0" end="3600" vehsPerHour="84.25" departLane="best" departPos="random" departSpeed="0" from="-55029244#0" to="198876042#0"/>
  <flow id="motorcycle_-55029244#0_193253427#0_00044515" type="motorcycle" begin="0" end="3600" vehsPerHour="68.79" departLane="best" departPos="random" departSpeed="0" from="-55029244#0" to="193253427#0"/>
  <flow id="motorcycle_-55029244#0_198876043#2_00044515" type="motorcycle" begin="0" end="3600" vehsPerHour="62.32" departLane="best" departPos="random" departSpeed="0" from="-55029244#0" to="198876043#2"/>
  <flow id="motorcycle_-55029244#0_28231434_00044515" type="motorcycle" begin="0" end="3600" vehsPerHour="56.01" departLane="best" departPos="random" departSpeed="0" from="-55029244#0" to="28231434"/>
  <flow id="motorcycle_-55029244#0_23241821#0_00044515" type="motorcycle" begin="0" end="3600" vehsPerHour="48.14" departLane="best" departPos="random" departSpeed="0" from="-55029244#0" to="23241821#0"/>
  <flow id="car_34241530#0_198876042#0_00044515" type="car" begin="0" end="3600" vehsPerHour="26.97" departLane="best" departPos="random" departSpeed="0" from="34241530#0" to="198876042#0"/>
  <flow id="car_34241530#0_193253427#0_00044515" type="car" begin="0" end="3600" vehsPerHour="23.78" departLane="best" departPos="random" departSpeed="0" from="34241530#0" to="193253427#0"/>
  <flow id="car_34241530#0_198876043#2_00044515" type="car" begin="0" end="3600" vehsPerHour="20.49" departLane="best" departPos="random" departSpeed="0" from="34241530#0" to="198876043#2"/>
  <flow id="car_34241530#0_28231434_00044515" type="car" begin="0" end="3600" vehsPerHour="16.68" departLane="best" departPos="random" departSpeed="0" from="34241530#0" to="28231434"/>
  <flow id="car_34241530#0_23241821#0_00044515" type="car" begin="0" end="3600" vehsPerHour="13.02" departLane="best" departPos="random" departSpeed="0" from="34241530#0" to="23241821#0"/>
  <flow id="motorcycle_34241530#0_198876042#0_00044515" type="motorcycle" begin="0" end="3600" vehsPerHour="82.49" departLane="best" departPos="random" departSpeed="0" from="34241530#0" to="198876042#0"/>
  <flow id="motorcycle_34241530#0_193253427#0_00044515" type="motorcycle" begin="0" end="3600" vehsPerHour="69.95" departLane="best" departPos="random" departSpeed="0" from="34241530#0" to="193253427#0"/>
  <flow id="motorcycle_34241530#0_198876043#2_00044515" type="motorcycle" begin="0" end="3600" vehsPerHour="63.29" departLane="best" departPos="random" departSpeed="0" from="34241530#0" to="198876043#2"/>
  <flow id="motorcycle_34241530#0_28231434_00044515" type="motorcycle" begin="0" end="3600" vehsPerHour="55.23" departLane="best" departPos="random" departSpeed="0" from="34241530#0" to="28231434"/>
  <flow id="motorcycle_34241530#0_23241821#0_00044515" type="motorcycle" begin="0" end="3600" vehsPerHour="46.09" departLane="best" departPos="random" departSpeed="0" from="34241530#0" to="23241821#0"/>
  <flow id="truck_34241530#0_198876042#0_00044515" type="truck" begin="0" end="3600" vehsPerHour="11.91" departLane="best" departPos="random" departSpeed="0" from="34241530#0" to="198876042#0"/>
</routes>
