<routes>
<vType id="car" vClass="passenger" accel="2.6" decel="4.5" sigma="0.5" length="5.0" maxSpeed="13.9"/>
<vType id="motorcycle" vClass="motorcycle" accel="3.0" decel="5.0" sigma="0.5" length="2.0" maxSpeed="14.0"/>
<vType id="truck" vClass="truck" accel="1.2" decel="3.5" sigma="0.5" length="12.0" maxSpeed="10.0"/>

  <flow id="car_222682222#1_193253427#0_0004d73c" type="car" begin="0" end="3600" vehsPerHour="63.35" departLane="best" departPos="random" departSpeed="0" from="222682222#1" to="193253427#0"/>
  <flow id="car_222682222#1_198876043#0_0004d73c" type="car" begin="0" end="3600" vehsPerHour="52.31" departLane="best" departPos="random" departSpeed="0" from="222682222#1" to="198876043#0"/>
  <flow id="car_222682222#1_28231434_0004d73c" type="car" begin="0" end="3600" vehsPerHour="49.39" departLane="best" departPos="random" departSpeed="0" from="222682222#1" to="28231434"/>
  <flow id="car_222682222#1_23241821#0_0004d73c" type="car" begin="0" end="3600" vehsPerHour="42.12" departLane="best" departPos="random" departSpeed="0" from="222682222#1" to="23241821#0"/>
  <flow id="car_222682222#1_198876042#0_0004d73c" type="car" begin="0" end="3600" vehsPerHour="32.63" departLane="best" departPos="random" departSpeed="0" from="222682222#1" to="198876042#0"/>
  <flow id="motorcycle_222682222#1_193253427#0_0004d73c" type="motorcycle" begin="0" end="3600" vehsPerHour="167.20" departLane="best" departPos="random" departSpeed="0" from="222682222#1" to="193253427#0"/>
  <flow id="motorcycle_222682222#1_198876043#0_0004d73c" type="motorcycle" begin="0" end="3600" vehsPerHour="161.90" departLane="best" departPos="random" departSpeed="0" from="222682222#1" to="198876043#0"/>
  <flow id="motorcycle_222682222#1_28231434_0004d73c" type="motorcycle" begin="0" end="3600" vehsPerHour="138.58" departLane="best" departPos="random" departSpeed="0" from="222682222#1" to="28231434"/>
  <flow id="motorcycle_222682222#1_23241821#0_0004d73c" type="motorcycle" begin="0" end="3600" vehsPerHour="112.34" departLane="best" departPos="random" departSpeed="0" from="222682222#1" to="23241821#0"/>
  <flow id="motorcycle_222682222#1_198876042#0_0004d73c" type="motorcycle" begin="0" end="3600" vehsPerHour="97.24" departLane="best" departPos="random" departSpeed="0" from="222682222#1" to="198876042#0"/>
  <flow id="car_193253433#2_198876043#0_0004d73c" type="car" begin="0" end="3600" vehsPerHour="42.05" departLane="best" departPos="random" departSpeed="0" from="193253433#2" to="198876043#0"/>
  <flow id="car_193253433#2_28231434_0004d73c" type="car" begin="0" end="3600" vehsPerHour="32.01" departLane="best" departPos="random" departSpeed="0" from="193253433#2" to="28231434"/>
  <flow id="car_193253433#2_23241821#0_0004d73c" type="car" begin="0" end="3600" vehsPerHour="33.36" departLane="best" departPos="random" departSpeed="0" from="193253433#2" to="23241821#0"/>
  <flow id="car_193253433#2_198876042#0_0004d73c" type="car" begin="0" end="3600" vehsPerHour="27.91" departLane="best" departPos="random" departSpeed="0" from="193253433#2" to="198876042#0"/>
  <flow id="car_193253433#2_193253427#0_0004d73c" type="car" begin="0" end="3600" vehsPerHour="24.53" departLane="best" departPos="random" departSpeed="0" from="193253433#2" to="193253427#0"/>
  <flow id="motorcycle_193253433#2_198876043#0_0004d73c" type="motorcycle" begin="0" end="3600" vehsPerHour="114.31" departLane="best" departPos="random" departSpeed="0" from="193253433#2" to="198876043#0"/>
  <flow id="motorcycle_193253433#2_28231434_0004d73c" type="motorcycle" begin="0" end="3600" vehsPerHour="102.65" departLane="best" departPos="random" departSpeed="0" from="193253433#2" to="28231434"/>
  <flow id="motorcycle_193253433#2_23241821#0_0004d73c" type="motorcycle" begin="0" end="3600" vehsPerHour="93.47" departLane="best" departPos="random" departSpeed="0" from="193253433#2" to="23241821#0"/>
  <flow id="motorcycle_193253433#2_198876042#0_0004d73c" type="motorcycle" begin="0" end="3600" vehsPerHour="82.64" departLane="best" departPos="random" departSpeed="0" from="193253433#2" to="198876042#0"/>
  <flow id="motorcycle_193253433#2_193253427#0_0004d73c" type="motorcycle" begin="0" end="3600" vehsPerHour="66.76" departLane="best" departPos="random" departSpeed="0" from="193253433#2" to="193253427#0"/>
  <flow id="car_198876045#1_28231434_0004d73c" type="car" begin="0" end="3600" vehsPerHour="33.04" departLane="best" departPos="random" departSpeed="0" from="198876045#1" to="28231434"/>
  <flow id="car_198876045#1_23241821#0_0004d73c" type="car" begin="0" end="3600" vehsPerHour="30.72" departLane="best" departPos="random" departSpeed="0" from="198876045#1" to="23241821#0"/>
  <flow id="car_198876045#1_198876042#0_0004d73c" type="car" begin="0" end="3600" vehsPerHour="26.93" departLane="best" departPos="random" departSpeed="0" from="198876045#1" to="198876042#0"/>
  <flow id="car_198876045#1_193253427#0_0004d73c" type="car" begin="0" end="3600" vehsPerHour="22.77" departLane="best" departPos="random" departSpeed="0" from="198876045#1" to="193253427#0"/>
  <flow id="car_198876045#1_198876043#2_0004d73c" type="car" begin="0" end="3600" vehsPerHour="20.48" departLane="best" departPos="random" departSpeed="0" from="198876045#1" to="198876043#2"/>
  <flow id="motorcycle_198876045#1_28231434_0004d73c" type="motorcycle" begin="0" end="3600" vehsPerHour="105.42" departLane="best" departPos="random" departSpeed="0" from="198876045#1" to="28231434"/>
  <flow id="motorcycle_198876045#1_23241821#0_0004d73c" type="motorcycle" begin="0" end="3600" vehsPerHour="91.27" departLane="best" departPos="random" departSpeed="0" from="198876045#1" to="23241821#0"/>
  <flow id="motorcycle_198876045#1_198876042#0_0004d73c" type="motorcycle" begin="0" end="3600" vehsPerHour="81.07" departLane="best" departPos="random" departSpeed="0" from="198876045#1" to="198876042#0"/>
  <flow id="motorcycle_198876045#1_193253427#0_0004d73c" type="motorcycle" begin="0" end="3600" vehsPerHour="74.05" departLane="best" departPos="random" departSpeed="0" from="198876045#1" to="193253427#0"/>
  <flow id="motorcycle_198876045#1_198876043#2_0004d73c" type="motorcycle" begin="0" end="3600" vehsPerHour="64.81" departLane="best" departPos="random" departSpeed="0" from="198876045#1" to="198876043#2"/>
  <flow id="car_-28231434_23241821#0_0004d73c" type="car" begin="0" end="3600" vehsPerHour="23.52" departLane="best" departPos="random" departSpeed="0" from="-28231434" to="23241821#0"/>
  <flow id="car_-28231434_198876042#0_0004d73c" type="car" begin="0" end="3600" vehsPerHour="20.19" departLane="best" departPos="random" departSpeed="0" from="-28231434" to="198876042#0"/>
  <flow id="car_-28231434_193253427#0_0004d73c" type="car" begin="0" end="3600" vehsPerHour="16.11" departLane="best" departPos="random" departSpeed="0" from="-28231434" to="193253427#0"/>
  <flow id="car_-28231434_198876043#2_0004d73c" type="car" begin="0" end="3600" vehsPerHour="16.93" departLane="best" departPos="random" departSpeed="0" from="-28231434" to="198876043#2"/>
  <flow id="car_-28231434_28231434_0004d73c" type="car" begin="0" end="3600" vehsPerHour="13.60" departLane="best" departPos="random" departSpeed="0" from="-28231434" to="28231434"/>
  <flow id="motorcycle_-28231434_23241821#0_0004d73c" type="motorcycle" begin="0" end="3600" vehsPerHour="65.00" departLane="best" departPos="random" departSpeed="0" from="-28231434" to="23241821#0"/>
  <flow id="motorcycle_-28231434_198876042#0_0004d73c" type="motorcycle" begin="0" end="3600" vehsPerHour="59.54" departLane="best" departPos="random" departSpeed="0" from="-28231434" to="198876042#0"/>
  <flow id="motorcycle_-28231434_193253427#0_0004d73c" type="motorcycle" begin="0" end="3600" vehsPerHour="53.22" departLane="best" departPos="random" departSpeed="0" from="-28231434" to="193253427#0"/>
  <flow id="motorcycle_-28231434_198876043#2_0004d73c" type="motorcycle" begin="0" end="3600" vehsPerHour="49.42" departLane="best" departPos="random" departSpeed="0" from="-28231434" to="198876043#2"/>
  <flow id="motorcycle_-28231434_28231434_0004d73c" type="motorcycle" begin="0" end="3600" vehsPerHour="38.84" departLane="best" departPos="random" departSpeed="0" from="-28231434" to="28231434"/>
  <flow id="car_-55029244#0_198876042#0_0004d73c" type="car" begin="0" end="3600" vehsPerHour="26.83" departLane="best" departPos="random" departSpeed="0" from="-55029244#0" to="198876042#0"/>
  <flow id="car_-55029244#0_193253427#0_0004d73c" type="car" begin="0" end="3600" vehsPerHour="22.99" departLane="best" departPos="random" departSpeed="0" from="-55029244#0" to="193253427#0"/>
  <flow id="car_-55029244#0_198876043#2_0004d73c" type="car" begin="0" end="3600" vehsPerHour="20.12" departLane="best" departPos="random" departSpeed="0" from="-55029244#0" to="198876043#2"/>
  <flow id="car_-55029244#0_28231434_0004d73c" type="car" begin="0" end="3600" vehsPerHour="17.00" departLane="best" departPos="random" departSpeed="0" from="-55029244#0" to="28231434"/>
  <flow id="car_-55029244#0_23241821#0_0004d73c" type="car" begin="0" end="3600" vehsPerHour="13.44" departLane="best" departPos="random" departSpeed="0" from="-55029244#0" to="23241821#0"/>
  <flow id="motorcycle_-55029244#0_198876042#0_0004d73c" type="motorcycle" begin="0" end="3600" vehsPerHour="84.59" departLane="best" departPos="random" departSpeed="0" from="-55029244#0" to="198876042#0"/>
  <flow id="motorcycle_-55029244#0_193253427#0_0004d73c" type="motorcycle" begin="0" end="3600" vehsPerHour="64.66" departLane="best" departPos="random" departSpeed="0" from="-55029244#0" to="193253427#0"/>
  <flow id="motorcycle_-55029244#0_198876043#2_0004d73c" type="motorcycle" begin="0" end="3600" vehsPerHour="60.20" departLane="best" departPos="random" departSpeed="0" from="-55029244#0" to="198876043#2"/>
  <flow id="motorcycle_-55029244#0_28231434_0004d73c" type="motorcycle" begin="0" end="3600" vehsPerHour="54.43" departLane="best" departPos="random" departSpeed="0" from="-55029244#0" to="28231434"/>
  <flow id="motorcycle_-55029244#0_23241821#0_0004d73c" type="motorcycle" begin="0" end="3600" vehsPerHour="47.88" departLane="best" departPos="random" departSpeed="0" from="-55029244#0" to="23241821#0"/>
  <flow id="car_34241530#0_198876042#0_0004d73c" type="car" begin="0" end="3600" vehsPerHour="27.42" departLane="best" departPos="random" departSpeed="0" from="34241530#0" to="198876042#0"/>
  <flow id="car_34241530#0_193253427#0_0004d73c" type="car" begin="0" end="3600" vehsPerHour="22.74" departLane="best" departPos="random" departSpeed="0" from="34241530#0" to="193253427#0"/>
  <flow id="car_34241530#0_198876043#2_0004d73c" type="car" begin="0" end="3600" vehsPerHour="20.59" departLane="best" departPos="random" departSpeed="0" from="34241530#0" to="198876043#2"/>
  <flow id="car_34241530#0_28231434_0004d73c" type="car" begin="0" end="3600" vehsPerHour="16.38" departLane="best" departPos="random" departSpeed="0" from="34241530#0" to="28231434"/>
  <flow id="car_34241530#0_23241821#0_0004d73c" type="car" begin="0" end="3600" vehsPerHour="13.98" departLane="best" departPos="random" departSpeed="0" from="34241530#0" to="23241821#0"/>
  <flow id="motorcycle_34241530#0_198876042#0_0004d73c" type="motorcycle" begin="0" end="3600" vehsPerHour="84.90" departLane="best" departPos="random" departSpeed="0" from="34241530#0" to="198876042#0"/>
  <flow id="motorcycle_34241530#0_193253427#0_0004d73c" type="motorcycle" begin="0" end="3600" vehsPerHour="64.16" departLane="best" departPos="random" departSpeed="0" from="34241530#0" to="193253427#0"/>
  <flow id="motorcycle_34241530#0_198876043#2_0004d73c" type="motorcycle" begin="0" end="3600" vehsPerHour="62.96" departLane="best" departPos="random" departSpeed="0" from="34241530#0" to="198876043#2"/>
  <flow id="motorcycle_34241530#0_28231434_0004d73c" type="motorcycle" begin="0" end="3600" vehsPerHour="56.39" departLane="best" departPos="random" departSpeed="0" from="34241530#0" to="28231434"/>
  <flow id="motorcycle_34241530#0_23241821#0_0004d73c" type="motorcycle" begin="0" end="3600" vehsPerHour="47.98" departLane="best" departPos="random" departSpeed="0" from="34241530#0" to="23241821#0"/>
  <flow id="truck_34241530#0_198876042#0_0004d73c" type="truck" begin="0" end="3600" vehsPerHour="12.32" departLane="best" departPos="random" departSpeed="0" from="34241530#0" to="198876042#0"/>
</routes>
