<routes>
<vType id="car" vClass="passenger" accel="2.6" decel="4.5" sigma="0.5" length="5.0" maxSpeed="13.9"/>
<vType id="motorcycle" vClass="motorcycle" accel="3.0" decel="5.0" sigma="0.5" length="2.0" maxSpeed="14.0"/>
<vType id="truck" vClass="truck" accel="1.2" decel="3.5" sigma="0.5" length="12.0" maxSpeed="10.0"/>

  <flow id="car_222682222#1_193253427#0_0000cb17" type="car" begin="0" end="3600" vehsPerHour="58.25" departLane="best" departPos="random" departSpeed="0" from="222682222#1" to="193253427#0"/>
  <flow id="car_222682222#1_198876043#0_0000cb17" type="car" begin="0" end="3600" vehsPerHour="51.44" departLane="best" departPos="random" departSpeed="0" from="222682222#1" to="198876043#0"/>
  <flow id="car_222682222#1_28231434_0000cb17" type="car" begin="0" end="3600" vehsPerHour="51.34" departLane="best" departPos="random" departSpeed="0" from="222682222#1" to="28231434"/>
  <flow id="car_222682222#1_23241821#0_0000cb17" type="car" begin="0" end="3600" vehsPerHour="39.49" departLane="best" departPos="random" departSpeed="0" from="222682222#1" to="23241821#0"/>
  <flow id="car_222682222#1_198876042#0_0000cb17" type="car" begin="0" end="3600" vehsPerHour="32.16" departLane="best" departPos="random" departSpeed="0" from="222682222#1" to="198876042#0"/>
  <flow id="motorcycle_222682222#1_193253427#0_0000cb17" type="motorcycle" begin="0" end="3600" vehsPerHour="171.20" departLane="best" departPos="random" departSpeed="0" from="222682222#1" to="193253427#0"/>
  <flow id="motorcycle_222682222#1_198876043#0_0000cb17" type="motorcycle" begin="0" end="3600" vehsPerHour="159.61" departLane="best" departPos="random" departSpeed="0" from="222682222#1" to="198876043#0"/>
  <flow id="motorcycle_222682222#1_28231434_0000cb17" type="motorcycle" begin="0" end="3600" vehsPerHour="140.41" departLane="best" departPos="random" departSpeed="0" from="222682222#1" to="28231434"/>
  <flow id="motorcycle_222682222#1_23241821#0_0000cb17" type="motorcycle" begin="0" end="3600" vehsPerHour="120.28" departLane="best" departPos="random" departSpeed="0" from="222682222#1" to="23241821#0"/>
  <flow id="motorcycle_222682222#1_198876042#0_0000cb17" type="motorcycle" begin="0" end="3600" vehsPerHour="101.37" departLane="best" departPos="random" departSpeed="0" from="222682222#1" to="198876042#0"/>
  <flow id="car_193253433#2_198876043#0_0000cb17" type="car" begin="0" end="3600" vehsPerHour="38.44" departLane="best" departPos="random" departSpeed="0" from="193253433#2" to="198876043#0"/>
  <flow id="car_193253433#2_28231434_0000cb17" type="car" begin="0" end="3600" vehsPerHour="34.53" departLane="best" departPos="random" departSpeed="0" from="193253433#2" to="28231434"/>
  <flow id="car_193253433#2_23241821#0_0000cb17" type="car" begin="0" end="3600" vehsPerHour="34.35" departLane="best" departPos="random" departSpeed="0" from="193253433#2" to="23241821#0"/>
  <flow id="car_193253433#2_198876042#0_0000cb17" type="car" begin="0" end="3600" vehsPerHour="25.88" departLane="best" departPos="random" departSpeed="0" from="193253433#2" to="198876042#0"/>
  <flow id="car_193253433#2_193253427#0_0000cb17" type="car" begin="0" end="3600" vehsPerHour="22.72" departLane="best" departPos="random" departSpeed="0" from="193253433#2" to="193253427#0"/>
  <flow id="motorcycle_193253433#2_198876043#0_0000cb17" type="motorcycle" begin="0" end="3600" vehsPerHour="110.93" departLane="best" departPos="random" departSpeed="0" from="193253433#2" to="198876043#0"/>
  <flow id="motorcycle_193253433#2_28231434_0000cb17" type="motorcycle" begin="0" end="3600" vehsPerHour="96.12" departLane="best" departPos="random" departSpeed="0" from="193253433#2" to="28231434"/>
  <flow id="motorcycle_193253433#2_23241821#0_0000cb17" type="motorcycle" begin="0" end="3600" vehsPerHour="96.04" departLane="best" departPos="random" departSpeed="0" from="193253433#2" to="23241821#0"/>
  <flow id="motorcycle_193253433#2_198876042#0_0000cb17" type="motorcycle" begin="0" end="3600" vehsPerHour="78.67" departLane="best" departPos="random" departSpeed="0" from="193253433#2" to="198876042#0"/>
  <flow id="motorcycle_193253433#2_193253427#0_0000cb17" type="motorcycle" begin="0" end="3600" vehsPerHour="68.12" departLane="best" departPos="random" departSpeed="0" from="193253433#2" to="193253427#0"/>
  <flow id="car_198876045#1_28231434_0000cb17" type="car" begin="0" end="3600" vehsPerHour="35.17" departLane="best" departPos="random" departSpeed="0" from="198876045#1" to="28231434"/>
  <flow id="car_198876045#1_23241821#0_0000cb17" type="car" begin="0" end="3600" vehsPerHour="28.89" departLane="best" departPos="random" departSpeed="0" from="198876045#1" to="23241821#0"/>
  <flow id="car_198876045#1_198876042#0_0000cb17" type="car" begin="0" end="3600" vehsPerHour="27.65" departLane="best" departPos="random" departSpeed="0" from="198876045#1" to="198876042#0"/>
  <flow id="car_198876045#1_193253427#0_0000cb17" type="car" begin="0" end="3600" vehsPerHour="23.19" departLane="best" departPos="random" departSpeed="0" from="198876045#1" to="193253427#0"/>
  <flow id="car_198876045#1_198876043#2_0000cb17" type="car" begin="0" end="3600" vehsPerHour="19.82" departLane="best" departPos="random" departSpeed="0" from="198876045#1" to="198876043#2"/>
  <flow id="motorcycle_198876045#1_28231434_0000cb17" type="motorcycle" begin="0" end="3600" vehsPerHour="96.46" departLane="best" departPos="random" departSpeed="0" from="198876045#1" to="28231434"/>
  <flow id="motorcycle_198876045#1_23241821#0_0000cb17" type="motorcycle" begin="0" end="3600" vehsPerHour="88.04" departLane="best" departPos="random" departSpeed="0" from="198876045#1" to="23241821#0"/>
  <flow id="motorcycle_198876045#1_198876042#0_0000cb17" type="motorcycle" begin="0" end="3600" vehsPerHour="77.38" departLane="best" departPos="random" departSpeed="0" from="198876045#1" to="198876042#0"/>
  <flow id="motorcycle_198876045#1_193253427#0_0000cb17" type="motorcycle" begin="0" end="3600" vehsPerHour="70.92" departLane="best" departPos="random" departSpeed="0" from="198876045#1" to="193253427#0"/>
  <flow id="motorcycle_198876045#1_198876043#2_0000cb17" type="motorcycle" begin="0" end="3600" vehsPerHour="68.68" departLane="best" departPos="random" departSpeed="0" from="198876045#1" to="198876043#2"/>
  <flow id="car_-28231434_23241821#0_0000cb17" type="car" begin="0" end="3600" vehsPerHour="22.64" departLane="best" departPos="random" departSpeed="0" from="-28231434" to="23241821#0"/>
  <flow id="car_-28231434_198876042#0_0000cb17" type="car" begin="0" end="3600" vehsPerHour="21.23" departLane="best" departPos="random" departSpeed="0" from="-28231434" to="198876042#0"/>
  <flow id="car_-28231434_193253427#0_0000cb17" type="car" begin="0" end="3600" vehsPerHour="17.04" departLane="best" departPos="random" departSpeed="0" from="-28231434" to="193253427#0"/>
  <flow id="car_-28231434_198876043#2_0000cb17" type="car" begin="0" end="3600" vehsPerHour="16.42" departLane="best" departPos="random" departSpeed="0" from="-28231434" to="198876043#2"/>
  <flow id="car_-28231434_28231434_0000cb17" type="car" begin="0" end="3600" vehsPerHour="13.30" departLane="best" departPos="random" departSpeed="0" from="-28231434" to="28231434"/>
  <flow id="motorcycle_-28231434_23241821#0_0000cb17" type="motorcycle" begin="0" end="3600" vehsPerHour="68.92" departLane="best" departPos="random" departSpeed="0" from="-28231434" to="23241821#0"/>
  <flow id="motorcycle_-28231434_198876042#0_0000cb17" type="motorcycle" begin="0" end="3600" vehsPerHour="63.12" departLane="best" departPos="random" departSpeed="0" from="-28231434" to="198876042#0"/>
  <flow id="motorcycle_-28231434_193253427#0_0000cb17" type="motorcycle" begin="0" end="3600" vehsPerHour="53.01" departLane="best" departPos="random" departSpeed="0" from="-28231434" to="193253427#0"/>
  <flow id="motorcycle_-28231434_198876043#2_0000cb17" type="motorcycle" begin="0" end="3600" vehsPerHour="49.27" departLane="best" departPos="random" departSpeed="0" from="-28231434" to="198876043#2"/>
  <flow id="motorcycle_-28231434_28231434_0000cb17" type="motorcycle" begin="0" end="3600" vehsPerHour="42.37" departLane="best" departPos="random" departSpeed="0" from="-28231434" to="28231434"/>
  <flow id="car_-55029244#0_198876042#0_0000cb17" type="car" begin="0" end="3600" vehsPerHour="25.96" departLane="best" departPos="random" departSpeed="0" from="-55029244#0" to="198876042#0"/>
  <flow id="car_-55029244#0_193253427#0_0000cb17" type="car" begin="0" end="3600" vehsPerHour="23.85" departLane="best" departPos="random" departSpeed="0" from="-55029244#0" to="193253427#0"/>
  <flow id="car_-55029244#0_198876043#2_0000cb17" type="car" begin="0" end="3600" vehsPerHour="21.02" departLane="best" departPos="random" departSpeed="0" from="-55029244#0" to="198876043#2"/>
  <flow id="car_-55029244#0_28231434_0000cb17" type="car" begin="0" end="3600" vehsPerHour="17.15" departLane="best" departPos="random" departSpeed="0" from="-55029244#0" to="28231434"/>
  <flow id="car_-55029244#0_23241821#0_0000cb17" type="car" begin="0" end="3600" vehsPerHour="13.84" departLane="best" departPos="random" departSpeed="0" from="-55029244#0" to="23241821#0"/>
  <flow id="motorcycle_-55029244#0_198876042#0_0000cb17" type="motorcycle" begin="0" end="3600" vehsPerHour="78.71" departLane="best" departPos="random" departSpeed="0" from="-55029244#0" to="198876042#0"/>
  <flow id="motorcycle_-55029244#0_193253427#0_0000cb17" type="motorcycle" begin="0" end="3600" vehsPerHour="70.20" departLane="best" departPos="random" departSpeed="0" from="-55029244#0" to="193253427#0"/>
  <flow id="motorcycle_-55029244#0_198876043#2_0000cb17" type="motorcycle" begin="0" end="3600" vehsPerHour="59.48" departLane="best" departPos="random" departSpeed="0" from="-55029244#0" to="198876043#2"/>
  <flow id="motorcycle_-55029244#0_28231434_0000cb17" type="motorcycle" begin="0" end="3600" vehsPerHour="55.89" departLane="best" departPos="random" departSpeed="0" from="-55029244#0" to="28231434"/>
  <flow id="motorcycle_-55029244#0_23241821#0_0000cb17" type="motorcycle" begin="0" end="3600" vehsPerHour="47.80" departLane="best" departPos="random" departSpeed="0" from="-55029244#0" to="23241821#0"/>
  <flow id="car_34241530#0_198876042#0_0000cb17" type="car" begin="0" end="3600" vehsPerHour="26.34" departLane="best" departPos="random" departSpeed="0" from="34241530#0" to="198876042#0"/>
  <flow id="car_34241530#0_193253427#0_0000cb17" type="car" begin="0" end="3600" vehsPerHour="22.54" departLane="best" departPos="random" departSpeed="0" from="34241530#0" to="193253427#0"/>
  <flow id="car_34241530#0_198876043#2_0000cb17" type="car" begin="0" end="3600" vehsPerHour="20.90" departLane="best" departPos="random" departSpeed="0" from="34241530#0" to="198876043#2"/>
  <flow id="car_34241530#0_28231434_0000cb17" type="car" begin="0" end="3600" vehsPerHour="17.64" departLane="best" departPos="random" departSpeed="0" from="34241530#0" to="28231434"/>
  <flow id="car_34241530#0_23241821#0_0000cb17" type="car" begin="0" end="3600" vehsPerHour="13.41" departLane="best" departPos="random" departSpeed="0" from="34241530#0" to="23241821#0"/>
  <flow id="motorcycle_34241530#0_198876042#0_0000cb17" type="motorcycle" begin="0" end="3600" vehsPerHour="79.26" departLane="best" departPos="random" departSpeed="0" from="34241530#0" to="198876042#0"/>
  <flow id="motorcycle_34241530#0_193253427#0_0000cb17" type="motorcycle" begin="0" end="3600" vehsPerHour="66.36" departLane="best" departPos="random" departSpeed="0" from="34241530#0" to="193253427#0"/>
  <flow id="motorcycle_34241530#0_198876043#2_0000cb17" type="motorcycle" begin="0" end="3600" vehsPerHour="61.56" departLane="best" departPos="random" departSpeed="0" from="34241530#0" to="198876043#2"/>
  <flow id="motorcycle_34241530#0_28231434_0000cb17" type="motorcycle" begin="0" end="3600" vehsPerHour="53.96" departLane="best" departPos="random" departSpeed="0" from="34241530#0" to="28231434"/>
  <flow id="motorcycle_34241530#0_23241821#0_0000cb17" type="motorcycle" begin="0" end="3600" vehsPerHour="49.36" departLane="best" departPos="random" departSpeed="0" from="34241530#0" to="23241821#0"/>
  <flow id="truck_34241530#0_198876042#0_0000cb17" type="truck" begin="0" end="3600" vehsPerHour="12.32" departLane="best" departPos="random" departSpeed="0" from="34241530#0" to="198876042#0"/>
</routes>
