<routes>
<vType id="car" vClass="passenger" accel="2.6" decel="4.5" sigma="0.5" length="5.0" maxSpeed="13.9"/>
<vType id="motorcycle" vClass="motorcycle" accel="3.0" decel="5.0" sigma="0.5" length="2.0" maxSpeed="14.0"/>
<vType id="truck" vClass="truck" accel="1.2" decel="3.5" sigma="0.5" length="12.0" maxSpeed="10.0"/>

  <flow id="car_222682222#1_193253427#0_000b5549" type="car" begin="0" end="3600" vehsPerHour="60.75" departLane="best" departPos="random" departSpeed="0" from="222682222#1" to="193253427#0"/>
  <flow id="car_222682222#1_198876043#0_000b5549" type="car" begin="0" end="3600" vehsPerHour="50.19" departLane="best" departPos="random" departSpeed="0" from="222682222#1" to="198876043#0"/>
  <flow id="car_222682222#1_28231434_000b5549" type="car" begin="0" end="3600" vehsPerHour="52.34" departLane="best" departPos="random" departSpeed="0" from="222682222#1" to="28231434"/>
  <flow id="car_222682222#1_23241821#0_000b5549" type="car" begin="0" end="3600" vehsPerHour="40.87" departLane="best" departPos="random" departSpeed="0" from="222682222#1" to="23241821#0"/>
  <flow id="car_222682222#1_198876042#0_000b5549" type="car" begin="0" end="3600" vehsPerHour="34.76" departLane="best" departPos="random" departSpeed="0" from="222682222#1" to="198876042#0"/>
  <flow id="motorcycle_222682222#1_193253427#0_000b5549" type="motorcycle" begin="0" end="3600" vehsPerHour="183.84" departLane="best" departPos="random" departSpeed="0" from="222682222#1" to="193253427#0"/>
  <flow id="motorcycle_222682222#1_198876043#0_000b5549" type="motorcycle" begin="0" end="3600" vehsPerHour="149.20" departLane="best" departPos="random" departSpeed="0" from="222682222#1" to="198876043#0"/>
  <flow id="motorcycle_222682222#1_28231434_000b5549" type="motorcycle" begin="0" end="3600" vehsPerHour="137.70" departLane="best" departPos="random" departSpeed="0" from="222682222#1" to="28231434"/>
  <flow id="motorcycle_222682222#1_23241821#0_000b5549" type="motorcycle" begin="0" end="3600" vehsPerHour="118.06" departLane="best" departPos="random" departSpeed="0" from="222682222#1" to="23241821#0"/>
  <flow id="motorcycle_222682222#1_198876042#0_000b5549" type="motorcycle" begin="0" end="3600" vehsPerHour="102.59" departLane="best" departPos="random" departSpeed="0" from="222682222#1" to="198876042#0"/>
  <flow id="car_193253433#2_198876043#0_000b5549" type="car" begin="0" end="3600" vehsPerHour="41.04" departLane="best" departPos="random" departSpeed="0" from="193253433#2" to="198876043#0"/>
  <flow id="car_193253433#2_28231434_000b5549" type="car" begin="0" end="3600" vehsPerHour="32.91" departLane="best" departPos="random" departSpeed="0" from="193253433#2" to="28231434"/>
  <flow id="car_193253433#2_23241821#0_000b5549" type="car" begin="0" end="3600" vehsPerHour="34.87" departLane="best" departPos="random" departSpeed="0" from="193253433#2" to="23241821#0"/>
  <flow id="car_193253433#2_198876042#0_000b5549" type="car" begin="0" end="3600" vehsPerHour="28.20" departLane="best" departPos="random" departSpeed="0" from="193253433#2" to="198876042#0"/>
  <flow id="car_193253433#2_193253427#0_000b5549" type="car" begin="0" end="3600" vehsPerHour="23.97" departLane="best" departPos="random" departSpeed="0" from="193253433#2" to="193253427#0"/>
  <flow id="motorcycle_193253433#2_198876043#0_000b5549" type="motorcycle" begin="0" end="3600" vehsPerHour="117.65" departLane="best" departPos="random" departSpeed="0" from="193253433#2" to="198876043#0"/>
  <flow id="motorcycle_193253433#2_28231434_000b5549" type="motorcycle" begin="0" end="3600" vehsPerHour="104.60" departLane="best" departPos="random" departSpeed="0" from="193253433#2" to="28231434"/>
  <flow id="motorcycle_193253433#2_23241821#0_000b5549" type="motorcycle" begin="0" end="3600" vehsPerHour="95.79" departLane="best" departPos="random" departSpeed="0" from="193253433#2" to="23241821#0"/>
  <flow id="motorcycle_193253433#2_198876042#0_000b5549" type="motorcycle" begin="0" end="3600" vehsPerHour="84.41" departLane="best" departPos="random" departSpeed="0" from="193253433#2" to="198876042#0"/>
  <flow id="motorcycle_193253433#2_193253427#0_000b5549" type="motorcycle" begin="0" end="3600" vehsPerHour="68.33" departLane="best" departPos="random" departSpeed="0" from="193253433#2" to="193253427#0"/>
  <flow id="car_198876045#1_28231434_000b5549" type="car" begin="0" end="3600" vehsPerHour="34.68" departLane="best" departPos="random" departSpeed="0" from="198876045#1" to="28231434"/>
  <flow id="car_198876045#1_23241821#0_000b5549" type="car" begin="0" end="3600" vehsPerHour="30.97" departLane="best" departPos="random" departSpeed="0" from="198876045#1" to="23241821#0"/>
  <flow id="car_198876045#1_198876042#0_000b5549" type="car" begin="0" end="3600" vehsPerHour="26.65" departLane="best" departPos="random" departSpeed="0" from="198876045#1" to="198876042#0"/>
  <flow id="car_198876045#1_193253427#0_000b5549" type="car" begin="0" end="3600" vehsPerHour="22.55" departLane="best" departPos="random" departSpeed="0" from="198876045#1" to="193253427#0"/>
  <flow id="car_198876045#1_198876043#2_000b5549" type="car" begin="0" end="3600" vehsPerHour="19.49" departLane="best" departPos="random" departSpeed="0" from="198876045#1" to="198876043#2"/>
  <flow id="motorcycle_198876045#1_28231434_000b5549" type="motorcycle" begin="0" end="3600" vehsPerHour="101.75" departLane="best" departPos="random" departSpeed="0" from="198876045#1" to="28231434"/>
  <flow id="motorcycle_198876045#1_23241821#0_000b5549" type="motorcycle" begin="0" end="3600" vehsPerHour="87.82" departLane="best" departPos="random" departSpeed="0" from="198876045#1" to="23241821#0"/>
  <flow id="motorcycle_198876045#1_198876042#0_000b5549" type="motorcycle" begin="0" end="3600" vehsPerHour="82.27" departLane="best" departPos="random" departSpeed="0" from="198876045#1" to="198876042#0"/>
  <flow id="motorcycle_198876045#1_193253427#0_000b5549" type="motorcycle" begin="0" end="3600" vehsPerHour="77.68" departLane="best" departPos="random" departSpeed="0" from="198876045#1" to="193253427#0"/>
  <flow id="motorcycle_198876045#1_198876043#2_000b5549" type="motorcycle" begin="0" end="3600" vehsPerHour="68.18" departLane="best" departPos="random" departSpeed="0" from="198876045#1" to="198876043#2"/>
  <flow id="car_-28231434_23241821#0_000b5549" type="car" begin="0" end="3600" vehsPerHour="22.80" departLane="best" departPos="random" departSpeed="0" from="-28231434" to="23241821#0"/>
  <flow id="car_-28231434_198876042#0_000b5549" type="car" begin="0" end="3600" vehsPerHour="19.26" departLane="best" departPos="random" departSpeed="0" from="-28231434" to="198876042#0"/>
  <flow id="car_-28231434_193253427#0_000b5549" type="car" begin="0" end="3600" vehsPerHour="16.87" departLane="best" departPos="random" departSpeed="0" from="-28231434" to="193253427#0"/>
  <flow id="car_-28231434_198876043#2_000b5549" type="car" begin="0" end="3600" vehsPerHour="16.36" departLane="best" departPos="random" departSpeed="0" from="-28231434" to="198876043#2"/>
  <flow id="car_-28231434_28231434_000b5549" type="car" begin="0" end="3600" vehsPerHour="12.82" departLane="best" departPos="random" departSpeed="0" from="-28231434" to="28231434"/>
  <flow id="motorcycle_-28231434_23241821#0_000b5549" type="motorcycle" begin="0" end="3600" vehsPerHour="65.09" departLane="best" departPos="random" departSpeed="0" from="-28231434" to="23241821#0"/>
  <flow id="motorcycle_-28231434_198876042#0_000b5549" type="motorcycle" begin="0" end="3600" vehsPerHour="58.44" departLane="best" departPos="random" departSpeed="0" from="-28231434" to="198876042#0"/>
  <flow id="motorcycle_-28231434_193253427#0_000b5549" type="motorcycle" begin="0" end="3600" vehsPerHour="51.60" departLane="best" departPos="random" departSpeed="0" from="-28231434" to="193253427#0"/>
  <flow id="motorcycle_-28231434_198876043#2_000b5549" type="motorcycle" begin="0" end="3600" vehsPerHour="45.18" departLane="best" departPos="random" departSpeed="0" from="-28231434" to="198876043#2"/>
  <flow id="motorcycle_-28231434_28231434_000b5549" type="motorcycle" begin="0" end="3600" vehsPerHour="39.11" departLane="best" departPos="random" departSpeed="0" from="-28231434" to="28231434"/>
  <flow id="car_-55029244#0_198876042#0_000b5549" type="car" begin="0" end="3600" vehsPerHour="26.83" departLane="best" departPos="random" departSpeed="0" from="-55029244#0" to="198876042#0"/>
  <flow id="car_-55029244#0_193253427#0_000b5549" type="car" begin="0" end="3600" vehsPerHour="23.62" departLane="best" departPos="random" departSpeed="0" from="-55029244#0" to="193253427#0"/>
  <flow id="car_-55029244#0_198876043#2_000b5549" type="car" begin="0" end="3600" vehsPerHour="20.88" departLane="best" departPos="random" departSpeed="0" from="-55029244#0" to="198876043#2"/>
  <flow id="car_-55029244#0_28231434_000b5549" type="car" begin="0" end="3600" vehsPerHour="17.67" departLane="best" departPos="random" departSpeed="0" from="-55029244#0" to="28231434"/>
  <flow id="car_-55029244#0_23241821#0_000b5549" type="car" begin="0" end="3600" vehsPerHour="14.14" departLane="best" departPos="random" departSpeed="0" from="-55029244#0" to="23241821#0"/>
  <flow id="motorcycle_-55029244#0_198876042#0_000b5549" type="motorcycle" begin="0" end="3600" vehsPerHour="81.46" departLane="best" departPos="random" departSpeed="0" from="-55029244#0" to="198876042#0"/>
  <flow id="motorcycle_-55029244#0_193253427#0_000b5549" type="motorcycle" begin="0" end="3600" vehsPerHour="70.15" departLane="best" departPos="random" departSpeed="0" from="-55029244#0" to="193253427#0"/>
  <flow id="motorcycle_-55029244#0_198876043#2_000b5549" type="motorcycle" begin="0" end="3600" vehsPerHour="60.94" departLane="best" departPos="random" departSpeed="0" from="-55029244#0" to="198876043#2"/>
  <flow id="motorcycle_-55029244#0_28231434_000b5549" type="motorcycle" begin="0" end="3600" vehsPerHour="54.91" departLane="best" departPos="random" departSpeed="0" from="-55029244#0" to="28231434"/>
  <flow id="motorcycle_-55029244#0_23241821#0_000b5549" type="motorcycle" begin="0" end="3600" vehsPerHour="48.65" departLane="best" departPos="random" departSpeed="0" from="-55029244#0" to="23241821#0"/>
  <flow id="car_34241530#0_198876042#0_000b5549" type="car" begin="0" end="3600" vehsPerHour="25.79" departLane="best" departPos="random" departSpeed="0" from="34241530#0" to="198876042#0"/>
  <flow id="car_34241530#0_193253427#0_000b5549" type="car" begin="0" end="3600" vehsPerHour="23.10" departLane="best" departPos="random" departSpeed="0" from="34241530#0" to="193253427#0"/>
  <flow id="car_34241530#0_198876043#2_000b5549" type="car" begin="0" end="3600" vehsPerHour="19.87" departLane="best" departPos="random" departSpeed="0" from="34241530#0" to="198876043#2"/>
  <flow id="car_34241530#0_28231434_000b5549" type="car" begin="0" end="3600" vehsPerHour="17.08" departLane="best" departPos="random" departSpeed="0" from="34241530#0" to="28231434"/>
  <flow id="car_34241530#0_23241821#0_000b5549" type="car" begin="0" end="3600" vehsPerHour="13.00" departLane="best" departPos="random" departSpeed="0" from="34241530#0" to="23241821#0"/>
  <flow id="motorcycle_34241530#0_198876042#0_000b5549" type="motorcycle" begin="0" end="3600" vehsPerHour="84.10" departLane="best" departPos="random" departSpeed="0" from="34241530#0" to="198876042#0"/>
  <flow id="motorcycle_34241530#0_193253427#0_000b5549" type="motorcycle" begin="0" end="3600" vehsPerHour="66.37" departLane="best" departPos="random" departSpeed="0" from="34241530#0" to="193253427#0"/>
  <flow id="motorcycle_34241530#0_198876043#2_000b5549" type="motorcycle" begin="0" end="3600" vehsPerHour="60.47" departLane="best" departPos="random" departSpeed="0" from="34241530#0" to="198876043#2"/>
  <flow id="motorcycle_34241530#0_28231434_000b5549" type="motorcycle" begin="0" end="3600" vehsPerHour="51.72" departLane="best" departPos="random" departSpeed="0" from="34241530#0" to="28231434"/>
  <flow id="motorcycle_34241530#0_23241821#0_000b5549" type="motorcycle" begin="0" end="3600" vehsPerHour="47.44" departLane="best" departPos="random" departSpeed="0" from="34241530#0" to="23241821#0"/>
  <flow id="truck_34241530#0_198876042#0_000b5549" type="truck" begin="0" end="3600" vehsPerHour="11.26" departLane="best" departPos="random" departSpeed="0" from="34241530#0" to="198876042#0"/>
</routes>
