<routes>
<vType id="car" vClass="passenger" accel="2.6" decel="4.5" sigma="0.5" length="5.0" maxSpeed="13.9"/>
<vType id="motorcycle" vClass="motorcycle" accel="3.0" decel="5.0" sigma="0.5" length="2.0" maxSpeed="14.0"/>
<vType id="truck" vClass="truck" accel="1.2" decel="3.5" sigma="0.5" length="12.0" maxSpeed="10.0"/>

  <flow id="car_222682222#1_193253427#0_000b5032" type="car" begin="0" end="3600" vehsPerHour="59.46" departLane="best" departPos="random" departSpeed="0" from="222682222#1" to="193253427#0"/>
  <flow id="car_222682222#1_198876043#0_000b5032" type="car" begin="0" end="3600" vehsPerHour="49.43" departLane="best" departPos="random" departSpeed="0" from="222682222#1" to="198876043#0"/>
  <flow id="car_222682222#1_28231434_000b5032" type="car" begin="0" end="3600" vehsPerHour="52.32" departLane="best" departPos="random" departSpeed="0" from="222682222#1" to="28231434"/>
  <flow id="car_222682222#1_23241821#0_000b5032" type="car" begin="0" end="3600" vehsPerHour="38.80" departLane="best" departPos="random" departSpeed="0" from="222682222#1" to="23241821#0"/>
  <flow id="car_222682222#1_198876042#0_000b5032" type="car" begin="0" end="3600" vehsPerHour="33.32" departLane="best" departPos="random" departSpeed="0" from="222682222#1" to="198876042#0"/>
  <flow id="motorcycle_222682222#1_193253427#0_000b5032" type="motorcycle" begin="0" end="3600" vehsPerHour="171.44" departLane="best" departPos="random" departSpeed="0" from="222682222#1" to="193253427#0"/>
  <flow id="motorcycle_222682222#1_198876043#0_000b5032" type="motorcycle" begin="0" end="3600" vehsPerHour="147.91" departLane="best" departPos="random" departSpeed="0" from="222682222#1" to="198876043#0"/>
  <flow id="motorcycle_222682222#1_28231434_000b5032" type="motorcycle" begin="0" end="3600" vehsPerHour="146.93" departLane="best" departPos="random" departSpeed="0" from="222682222#1" to="28231434"/>
  <flow id="motorcycle_222682222#1_23241821#0_000b5032" type="motorcycle" begin="0" end="3600" vehsPerHour="116.48" departLane="best" departPos="random" departSpeed="0" from="222682222#1" to="23241821#0"/>
  <flow id="motorcycle_222682222#1_198876042#0_000b5032" type="motorcycle" begin="0" end="3600" vehsPerHour="96.72" departLane="best" departPos="random" departSpeed="0" from="222682222#1" to="198876042#0"/>
  <flow id="car_193253433#2_198876043#0_000b5032" type="car" begin="0" end="3600" vehsPerHour="40.84" departLane="best" departPos="random" departSpeed="0" from="193253433#2" to="198876043#0"/>
  <flow id="car_193253433#2_28231434_000b5032" type="car" begin="0" end="3600" vehsPerHour="34.61" departLane="best" departPos="random" departSpeed="0" from="193253433#2" to="28231434"/>
  <flow id="car_193253433#2_23241821#0_000b5032" type="car" begin="0" end="3600" vehsPerHour="32.57" departLane="best" departPos="random" departSpeed="0" from="193253433#2" to="23241821#0"/>
  <flow id="car_193253433#2_198876042#0_000b5032" type="car" begin="0" end="3600" vehsPerHour="27.12" departLane="best" departPos="random" departSpeed="0" from="193253433#2" to="198876042#0"/>
  <flow id="car_193253433#2_193253427#0_000b5032" type="car" begin="0" end="3600" vehsPerHour="24.66" departLane="best" departPos="random" departSpeed="0" from="193253433#2" to="193253427#0"/>
  <flow id="motorcycle_193253433#2_198876043#0_000b5032" type="motorcycle" begin="0" end="3600" vehsPerHour="111.05" departLane="best" departPos="random" departSpeed="0" from="193253433#2" to="198876043#0"/>
  <flow id="motorcycle_193253433#2_28231434_000b5032" type="motorcycle" begin="0" end="3600" vehsPerHour="102.59" departLane="best" departPos="random" departSpeed="0" from="193253433#2" to="28231434"/>
  <flow id="motorcycle_193253433#2_23241821#0_000b5032" type="motorcycle" begin="0" end="3600" vehsPerHour="95.63" departLane="best" departPos="random" departSpeed="0" from="193253433#2" to="23241821#0"/>
  <flow id="motorcycle_193253433#2_198876042#0_000b5032" type="motorcycle" begin="0" end="3600" vehsPerHour="82.06" departLane="best" departPos="random" departSpeed="0" from="193253433#2" to="198876042#0"/>
  <flow id="motorcycle_193253433#2_193253427#0_000b5032" type="motorcycle" begin="0" end="3600" vehsPerHour="67.42" departLane="best" departPos="random" departSpeed="0" from="193253433#2" to="193253427#0"/>
  <flow id="car_198876045#1_28231434_000b5032" type="car" begin="0" end="3600" vehsPerHour="32.38" departLane="best" departPos="random" departSpeed="0" from="198876045#1" to="28231434"/>
  <flow id="car_198876045#1_23241821#0_000b5032" type="car" begin="0" end="3600" vehsPerHour="31.51" departLane="best" departPos="random" departSpeed="0" from="198876045#1" to="23241821#0"/>
  <flow id="car_198876045#1_198876042#0_000b5032" type="car" begin="0" end="3600" vehsPerHour="27.56" departLane="best" departPos="random" departSpeed="0" from="198876045#1" to="198876042#0"/>
  <flow id="car_198876045#1_193253427#0_000b5032" type="car" begin="0" end="3600" vehsPerHour="23.94" departLane="best" departPos="random" departSpeed="0" from="198876045#1" to="193253427#0"/>
  <flow id="car_198876045#1_198876043#2_000b5032" type="car" begin="0" end="3600" vehsPerHour="20.07" departLane="best" departPos="random" departSpeed="0" from="198876045#1" to="198876043#2"/>
  <flow id="motorcycle_198876045#1_28231434_000b5032" type="motorcycle" begin="0" end="3600" vehsPerHour="100.76" departLane="best" departPos="random" departSpeed="0" from="198876045#1" to="28231434"/>
  <flow id="motorcycle_198876045#1_23241821#0_000b5032" type="motorcycle" begin="0" end="3600" vehsPerHour="85.67" departLane="best" departPos="random" departSpeed="0" from="198876045#1" to="23241821#0"/>
  <flow id="motorcycle_198876045#1_198876042#0_000b5032" type="motorcycle" begin="0" end="3600" vehsPerHour="84.23" departLane="best" departPos="random" departSpeed="0" from="198876045#1" to="198876042#0"/>
  <flow id="motorcycle_198876045#1_193253427#0_000b5032" type="motorcycle" begin="0" end="3600" vehsPerHour="75.76" departLane="best" departPos="random" departSpeed="0" from="198876045#1" to="193253427#0"/>
  <flow id="motorcycle_198876045#1_198876043#2_000b5032" type="motorcycle" begin="0" end="3600" vehsPerHour="66.40" departLane="best" departPos="random" departSpeed="0" from="198876045#1" to="198876043#2"/>
  <flow id="car_-28231434_23241821#0_000b5032" type="car" begin="0" end="3600" vehsPerHour="24.73" departLane="best" departPos="random" departSpeed="0" from="-28231434" to="23241821#0"/>
  <flow id="car_-28231434_198876042#0_000b5032" type="car" begin="0" end="3600" vehsPerHour="20.94" departLane="best" departPos="random" departSpeed="0" from="-28231434" to="198876042#0"/>
  <flow id="car_-28231434_193253427#0_000b5032" type="car" begin="0" end="3600" vehsPerHour="17.46" departLane="best" departPos="random" departSpeed="0" from="-28231434" to="193253427#0"/>
  <flow id="car_-28231434_198876043#2_000b5032" type="car" begin="0" end="3600" vehsPerHour="16.96" departLane="best" departPos="random" departSpeed="0" from="-28231434" to="198876043#2"/>
  <flow id="car_-28231434_28231434_000b5032" type="car" begin="0" end="3600" vehsPerHour="13.45" departLane="best" departPos="random" departSpeed="0" from="-28231434" to="28231434"/>
  <flow id="motorcycle_-28231434_23241821#0_000b5032" type="motorcycle" begin="0" end="3600" vehsPerHour="70.66" departLane="best" departPos="random" departSpeed="0" from="-28231434" to="23241821#0"/>
  <flow id="motorcycle_-28231434_198876042#0_000b5032" type="motorcycle" begin="0" end="3600" vehsPerHour="59.90" departLane="best" departPos="random" departSpeed="0" from="-28231434" to="198876042#0"/>
  <flow id="motorcycle_-28231434_193253427#0_000b5032" type="motorcycle" begin="0" end="3600" vehsPerHour="53.67" departLane="best" departPos="random" departSpeed="0" from="-28231434" to="193253427#0"/>
  <flow id="motorcycle_-28231434_198876043#2_000b5032" type="motorcycle" begin="0" end="3600" vehsPerHour="47.97" departLane="best" departPos="random" departSpeed="0" from="-28231434" to="198876043#2"/>
  <flow id="motorcycle_-28231434_28231434_000b5032" type="motorcycle" begin="0" end="3600" vehsPerHour="40.39" departLane="best" departPos="random" departSpeed="0" from="-28231434" to="28231434"/>
  <flow id="car_-55029244#0_198876042#0_000b5032" type="car" begin="0" end="3600" vehsPerHour="28.29" departLane="best" departPos="random" departSpeed="0" from="-55029244#0" to="198876042#0"/>
  <flow id="car_-55029244#0_193253427#0_000b5032" type="car" begin="0" end="3600" vehsPerHour="24.62" departLane="best" departPos="random" departSpeed="0" from="-55029244#0" to="193253427#0"/>
  <flow id="car_-55029244#0_198876043#2_000b5032" type="car" begin="0" end="3600" vehsPerHour="20.02" departLane="best" departPos="random" departSpeed="0" from="-55029244#0" to="198876043#2"/>
  <flow id="car_-55029244#0_28231434_000b5032" type="car" begin="0" end="3600" vehsPerHour="16.96" departLane="best" departPos="random" departSpeed="0" from="-55029244#0" to="28231434"/>
  <flow id="car_-55029244#0_23241821#0_000b5032" type="car" begin="0" end="3600" vehsPerHour="13.86" departLane="best" departPos="random" departSpeed="0" from="-55029244#0" to="23241821#0"/>
  <flow id="motorcycle_-55029244#0_198876042#0_000b5032" type="motorcycle" begin="0" end="3600" vehsPerHour="81.26" departLane="best" departPos="random" departSpeed="0" from="-55029244#0" to="198876042#0"/>
  <flow id="motorcycle_-55029244#0_193253427#0_000b5032" type="motorcycle" begin="0" end="3600" vehsPerHour="64.84" departLane="best" departPos="random" departSpeed="0" from="-55029244#0" to="193253427#0"/>
  <flow id="motorcycle_-55029244#0_198876043#2_000b5032" type="motorcycle" begin="0" end="3600" vehsPerHour="61.21" departLane="best" departPos="random" departSpeed="0" from="-55029244#0" to="198876043#2"/>
  <flow id="motorcycle_-55029244#0_28231434_000b5032" type="motorcycle" begin="0" end="3600" vehsPerHour="54.91" departLane="best" departPos="random" departSpeed="0" from="-55029244#0" to="28231434"/>
  <flow id="motorcycle_-55029244#0_23241821#0_000b5032" type="motorcycle" begin="0" end="3600" vehsPerHour="45.05" departLane="best" departPos="random" departSpeed="0" from="-55029244#0" to="23241821#0"/>
  <flow id="car_34241530#0_198876042#0_000b5032" type="car" begin="0" end="3600" vehsPerHour="27.48" departLane="best" departPos="random" departSpeed="0" from="34241530#0" to="198876042#0"/>
  <flow id="car_34241530#0_193253427#0_000b5032" type="car" begin="0" end="3600" vehsPerHour="24.02" departLane="best" departPos="random" departSpeed="0" from="34241530#0" to="193253427#0"/>
  <flow id="car_34241530#0_198876043#2_000b5032" type="car" begin="0" end="3600" vehsPerHour="19.68" departLane="best" departPos="random" departSpeed="0" from="34241530#0" to="198876043#2"/>
  <flow id="car_34241530#0_28231434_000b5032" type="car" begin="0" end="3600" vehsPerHour="16.48" departLane="best" departPos="random" departSpeed="0" from="34241530#0" to="28231434"/>
  <flow id="car_34241530#0_23241821#0_000b5032" type="car" begin="0" end="3600" vehsPerHour="14.06" departLane="best" departPos="random" departSpeed="0" from="34241530#0" to="23241821#0"/>
  <flow id="motorcycle_34241530#0_198876042#0_000b5032" type="motorcycle" begin="0" end="3600" vehsPerHour="84.75" departLane="best" departPos="random" departSpeed="0" from="34241530#0" to="198876042#0"/>
  <flow id="motorcycle_34241530#0_193253427#0_000b5032" type="motorcycle" begin="0" end="3600" vehsPerHour="64.92" departLane="best" departPos="random" departSpeed="0" from="34241530#0" to="193253427#0"/>
  <flow id="motorcycle_34241530#0_198876043#2_000b5032" type="motorcycle" begin="0" end="3600" vehsPerHour="61.43" departLane="best" departPos="random" departSpeed="0" from="34241530#0" to="198876043#2"/>
  <flow id="motorcycle_34241530#0_28231434_000b5032" type="motorcycle" begin="0" end="3600" vehsPerHour="55.48" departLane="best" departPos="random" departSpeed="0" from="34241530#0" to="28231434"/>
  <flow id="motorcycle_34241530#0_23241821#0_000b5032" type="motorcycle" begin="0" end="3600" vehsPerHour="46.47" departLane="best" departPos="random" departSpeed="0" from="34241530#0" to="23241821#0"/>
  <flow id="truck_34241530#0_198876042#0_000b5032" type="truck" begin="0" end="3600" vehsPerHour="11.63" departLane="best" departPos="random" departSpeed="0" from="34241530#0" to="198876042#0"/>
</routes>
