<routes>
<vType id="car" vClass="passenger" accel="2.6" decel="4.5" sigma="0.5" length="5.0" maxSpeed="13.9"/>
<vType id="motorcycle" vClass="motorcycle" accel="3.0" decel="5.0" sigma="0.5" length="2.0" maxSpeed="14.0"/>
<vType id="truck" vClass="truck" accel="1.2" decel="3.5" sigma="0.5" length="12.0" maxSpeed="10.0"/>

  <flow id="car_222682222#1_193253427#0_00030310" type="car" begin="0" end="3600" vehsPerHour="59.60" departLane="best" departPos="random" departSpeed="0" from="222682222#1" to="193253427#0"/>
  <flow id="car_222682222#1_198876043#0_00030310" type="car" begin="0" end="3600" vehsPerHour="48.41" departLane="best" departPos="random" departSpeed="0" from="222682222#1" to="198876043#0"/>
  <flow id="car_222682222#1_28231434_00030310" type="car" begin="0" end="3600" vehsPerHour="51.66" departLane="best" departPos="random" departSpeed="0" from="222682222#1" to="28231434"/>
  <flow id="car_222682222#1_23241821#0_00030310" type="car" begin="0" end="3600" vehsPerHour="39.69" departLane="best" departPos="random" departSpeed="0" from="222682222#1" to="23241821#0"/>
  <flow id="car_222682222#1_198876042#0_00030310" type="car" begin="0" end="3600" vehsPerHour="33.56" departLane="best" departPos="random" departSpeed="0" from="222682222#1" to="198876042#0"/>
  <flow id="motorcycle_222682222#1_193253427#0_00030310" type="motorcycle" begin="0" end="3600" vehsPerHour="183.33" departLane="best" departPos="random" departSpeed="0" from="222682222#1" to="193253427#0"/>
  <flow id="motorcycle_222682222#1_198876043#0_00030310" type="motorcycle" begin="0" end="3600" vehsPerHour="149.90" departLane="best" departPos="random" departSpeed="0" from="222682222#1" to="198876043#0"/>
  <flow id="motorcycle_222682222#1_28231434_00030310" type="motorcycle" begin="0" end="3600" vehsPerHour="141.85" departLane="best" departPos="random" departSpeed="0" from="222682222#1" to="28231434"/>
  <flow id="motorcycle_222682222#1_23241821#0_00030310" type="motorcycle" begin="0" end="3600" vehsPerHour="118.84" departLane="best" departPos="random" departSpeed="0" from="222682222#1" to="23241821#0"/>
  <flow id="motorcycle_222682222#1_198876042#0_00030310" type="motorcycle" begin="0" end="3600" vehsPerHour="101.33" departLane="best" departPos="random" departSpeed="0" from="222682222#1" to="198876042#0"/>
  <flow id="car_193253433#2_198876043#0_00030310" type="car" begin="0" end="3600" vehsPerHour="41.42" departLane="best" departPos="random" departSpeed="0" from="193253433#2" to="198876043#0"/>
  <flow id="car_193253433#2_28231434_00030310" type="car" begin="0" end="3600" vehsPerHour="33.86" departLane="best" departPos="random" departSpeed="0" from="193253433#2" to="28231434"/>
  <flow id="car_193253433#2_23241821#0_00030310" type="car" begin="0" end="3600" vehsPerHour="34.18" departLane="best" departPos="random" departSpeed="0" from="193253433#2" to="23241821#0"/>
  <flow id="car_193253433#2_198876042#0_00030310" type="car" begin="0" end="3600" vehsPerHour="27.87" departLane="best" departPos="random" departSpeed="0" from="193253433#2" to="198876042#0"/>
  <flow id="car_193253433#2_193253427#0_00030310" type="car" begin="0" end="3600" vehsPerHour="23.50" departLane="best" departPos="random" departSpeed="0" from="193253433#2" to="193253427#0"/>
  <flow id="motorcycle_193253433#2_198876043#0_00030310" type="motorcycle" begin="0" end="3600" vehsPerHour="115.20" departLane="best" departPos="random" departSpeed="0" from="193253433#2" to="198876043#0"/>
  <flow id="motorcycle_193253433#2_28231434_00030310" type="motorcycle" begin="0" end="3600" vehsPerHour="102.03" departLane="best" departPos="random" departSpeed="0" from="193253433#2" to="28231434"/>
  <flow id="motorcycle_193253433#2_23241821#0_00030310" type="motorcycle" begin="0" end="3600" vehsPerHour="93.87" departLane="best" departPos="random" departSpeed="0" from="193253433#2" to="23241821#0"/>
  <flow id="motorcycle_193253433#2_198876042#0_00030310" type="motorcycle" begin="0" end="3600" vehsPerHour="80.34" departLane="best" departPos="random" departSpeed="0" from="193253433#2" to="198876042#0"/>
  <flow id="motorcycle_193253433#2_193253427#0_00030310" type="motorcycle" begin="0" end="3600" vehsPerHour="70.25" departLane="best" departPos="random" departSpeed="0" from="193253433#2" to="193253427#0"/>
  <flow id="car_198876045#1_28231434_00030310" type="car" begin="0" end="3600" vehsPerHour="32.52" departLane="best" departPos="random" departSpeed="0" from="198876045#1" to="28231434"/>
  <flow id="car_198876045#1_23241821#0_00030310" type="car" begin="0" end="3600" vehsPerHour="30.93" departLane="best" departPos="random" departSpeed="0" from="198876045#1" to="23241821#0"/>
  <flow id="car_198876045#1_198876042#0_00030310" type="car" begin="0" end="3600" vehsPerHour="28.14" departLane="best" departPos="random" departSpeed="0" from="198876045#1" to="198876042#0"/>
  <flow id="car_198876045#1_193253427#0_00030310" type="car" begin="0" end="3600" vehsPerHour="23.90" departLane="best" departPos="random" departSpeed="0" from="198876045#1" to="193253427#0"/>
  <flow id="car_198876045#1_198876043#2_00030310" type="car" begin="0" end="3600" vehsPerHour="20.80" departLane="best" departPos="random" departSpeed="0" from="198876045#1" to="198876043#2"/>
  <flow id="motorcycle_198876045#1_28231434_00030310" type="motorcycle" begin="0" end="3600" vehsPerHour="96.87" departLane="best" departPos="random" departSpeed="0" from="198876045#1" to="28231434"/>
  <flow id="motorcycle_198876045#1_23241821#0_00030310" type="motorcycle" begin="0" end="3600" vehsPerHour="89.84" departLane="best" departPos="random" departSpeed="0" from="198876045#1" to="23241821#0"/>
  <flow id="motorcycle_198876045#1_198876042#0_00030310" type="motorcycle" begin="0" end="3600" vehsPerHour="82.38" departLane="best" departPos="random" departSpeed="0" from="198876045#1" to="198876042#0"/>
  <flow id="motorcycle_198876045#1_193253427#0_00030310" type="motorcycle" begin="0" end="3600" vehsPerHour="75.24" departLane="best" departPos="random" departSpeed="0" from="198876045#1" to="193253427#0"/>
  <flow id="motorcycle_198876045#1_198876043#2_00030310" type="motorcycle" begin="0" end="3600" vehsPerHour="68.62" departLane="best" departPos="random" departSpeed="0" from="198876045#1" to="198876043#2"/>
  <flow id="car_-28231434_23241821#0_00030310" type="car" begin="0" end="3600" vehsPerHour="24.69" departLane="best" departPos="random" departSpeed="0" from="-28231434" to="23241821#0"/>
  <flow id="car_-28231434_198876042#0_00030310" type="car" begin="0" end="3600" vehsPerHour="21.06" departLane="best" departPos="random" departSpeed="0" from="-28231434" to="198876042#0"/>
  <flow id="car_-28231434_193253427#0_00030310" type="car" begin="0" end="3600" vehsPerHour="16.99" departLane="best" departPos="random" departSpeed="0" from="-28231434" to="193253427#0"/>
  <flow id="car_-28231434_198876043#2_00030310" type="car" begin="0" end="3600" vehsPerHour="16.56" departLane="best" departPos="random" departSpeed="0" from="-28231434" to="198876043#2"/>
  <flow id="car_-28231434_28231434_00030310" type="car" begin="0" end="3600" vehsPerHour="13.05" departLane="best" departPos="random" departSpeed="0" from="-28231434" to="28231434"/>
  <flow id="motorcycle_-28231434_23241821#0_00030310" type="motorcycle" begin="0" end="3600" vehsPerHour="70.40" departLane="best" departPos="random" departSpeed="0" from="-28231434" to="23241821#0"/>
  <flow id="motorcycle_-28231434_198876042#0_00030310" type="motorcycle" begin="0" end="3600" vehsPerHour="60.73" departLane="best" departPos="random" departSpeed="0" from="-28231434" to="198876042#0"/>
  <flow id="motorcycle_-28231434_193253427#0_00030310" type="motorcycle" begin="0" end="3600" vehsPerHour="56.33" departLane="best" departPos="random" departSpeed="0" from="-28231434" to="193253427#0"/>
  <flow id="motorcycle_-28231434_198876043#2_00030310" type="motorcycle" begin="0" end="3600" vehsPerHour="46.80" departLane="best" departPos="random" departSpeed="0" from="-28231434" to="198876043#2"/>
  <flow id="motorcycle_-28231434_28231434_00030310" type="motorcycle" begin="0" end="3600" vehsPerHour="38.96" departLane="best" departPos="random" departSpeed="0" from="-28231434" to="28231434"/>
  <flow id="car_-55029244#0_198876042#0_00030310" type="car" begin="0" end="3600" vehsPerHour="27.76" departLane="best" departPos="random" departSpeed="0" from="-55029244#0" to="198876042#0"/>
  <flow id="car_-55029244#0_193253427#0_00030310" type="car" begin="0" end="3600" vehsPerHour="23.04" departLane="best" departPos="random" departSpeed="0" from="-55029244#0" to="193253427#0"/>
  <flow id="car_-55029244#0_198876043#2_00030310" type="car" begin="0" end="3600" vehsPerHour="19.50" departLane="best" departPos="random" departSpeed="0" from="-55029244#0" to="198876043#2"/>
  <flow id="car_-55029244#0_28231434_00030310" type="car" begin="0" end="3600" vehsPerHour="16.82" departLane="best" departPos="random" departSpeed="0" from="-55029244#0" to="28231434"/>
  <flow id="car_-55029244#0_23241821#0_00030310" type="car" begin="0" end="3600" vehsPerHour="13.82" departLane="best" departPos="random" departSpeed="0" from="-55029244#0" to="23241821#0"/>
  <flow id="motorcycle_-55029244#0_198876042#0_00030310" type="motorcycle" begin="0" end="3600" vehsPerHour="80.82" departLane="best" departPos="random" departSpeed="0" from="-55029244#0" to="198876042#0"/>
  <flow id="motorcycle_-55029244#0_193253427#0_00030310" type="motorcycle" begin="0" end="3600" vehsPerHour="64.59" departLane="best" departPos="random" departSpeed="0" from="-55029244#0" to="193253427#0"/>
  <flow id="motorcycle_-55029244#0_198876043#2_00030310" type="motorcycle" begin="0" end="3600" vehsPerHour="63.36" departLane="best" departPos="random" departSpeed="0" from="-55029244#0" to="198876043#2"/>
  <flow id="motorcycle_-55029244#0_28231434_00030310" type="motorcycle" begin="0" end="3600" vehsPerHour="54.91" departLane="best" departPos="random" departSpeed="0" from="-55029244#0" to="28231434"/>
  <flow id="motorcycle_-55029244#0_23241821#0_00030310" type="motorcycle" begin="0" end="3600" vehsPerHour="48.52" departLane="best" departPos="random" departSpeed="0" from="-55029244#0" to="23241821#0"/>
  <flow id="car_34241530#0_198876042#0_00030310" type="car" begin="0" end="3600" vehsPerHour="25.71" departLane="best" departPos="random" departSpeed="0" from="34241530#0" to="198876042#0"/>
  <flow id="car_34241530#0_193253427#0_00030310" type="car" begin="0" end="3600" vehsPerHour="23.56" departLane="best" departPos="random" departSpeed="0" from="34241530#0" to="193253427#0"/>
  <flow id="car_34241530#0_198876043#2_00030310" type="car" begin="0" end="3600" vehsPerHour="21.04" departLane="best" departPos="random" departSpeed="0" from="34241530#0" to="198876043#2"/>
  <flow id="car_34241530#0_28231434_00030310" type="car" begin="0" end="3600" vehsPerHour="17.20" departLane="best" departPos="random" departSpeed="0" from="34241530#0" to="28231434"/>
  <flow id="car_34241530#0_23241821#0_00030310" type="car" begin="0" end="3600" vehsPerHour="14.00" departLane="best" departPos="random" departSpeed="0" from="34241530#0" to="23241821#0"/>
  <flow id="motorcycle_34241530#0_198876042#0_00030310" type="motorcycle" begin="0" end="3600" vehsPerHour="84.85" departLane="best" departPos="random" departSpeed="0" from="34241530#0" to="198876042#0"/>
  <flow id="motorcycle_34241530#0_193253427#0_00030310" type="motorcycle" begin="0" end="3600" vehsPerHour="65.86" departLane="best" departPos="random" departSpeed="0" from="34241530#0" to="193253427#0"/>
  <flow id="motorcycle_34241530#0_198876043#2_00030310" type="motorcycle" begin="0" end="3600" vehsPerHour="61.67" departLane="best" departPos="random" departSpeed="0" from="34241530#0" to="198876043#2"/>
  <flow id="motorcycle_34241530#0_28231434_00030310" type="motorcycle" begin="0" end="3600" vehsPerHour="53.13" departLane="best" departPos="random" departSpeed="0" from="34241530#0" to="28231434"/>
  <flow id="motorcycle_34241530#0_23241821#0_00030310" type="motorcycle" begin="0" end="3600" vehsPerHour="46.52" departLane="best" departPos="random" departSpeed="0" from="34241530#0" to="23241821#0"/>
  <flow id="truck_34241530#0_198876042#0_00030310" type="truck" begin="0" end="3600" vehsPerHour="11.85" departLane="best" departPos="random" departSpeed="0" from="34241530#0" to="198876042#0"/>
</routes>
