<routes>
<vType id="car" vClass="passenger" accel="2.6" decel="4.5" sigma="0.5" length="5.0" maxSpeed="13.9"/>
<vType id="motorcycle" vClass="motorcycle" accel="3.0" decel="5.0" sigma="0.5" length="2.0" maxSpeed="14.0"/>
<vType id="truck" vClass="truck" accel="1.2" decel="3.5" sigma="0.5" length="12.0" maxSpeed="10.0"/>

  <flow id="car_222682222#1_193253427#0_000ea7c0" type="car" begin="0" end="3600" vehsPerHour="60.38" departLane="best" departPos="random" departSpeed="0" from="222682222#1" to="193253427#0"/>
  <flow id="car_222682222#1_198876043#0_000ea7c0" type="car" begin="0" end="3600" vehsPerHour="52.08" departLane="best" departPos="random" departSpeed="0" from="222682222#1" to="198876043#0"/>
  <flow id="car_222682222#1_28231434_000ea7c0" type="car" begin="0" end="3600" vehsPerHour="51.46" departLane="best" departPos="random" departSpeed="0" from="222682222#1" to="28231434"/>
  <flow id="car_222682222#1_23241821#0_000ea7c0" type="car" begin="0" end="3600" vehsPerHour="41.31" departLane="best" departPos="random" departSpeed="0" from="222682222#1" to="23241821#0"/>
  <flow id="car_222682222#1_198876042#0_000ea7c0" type="car" begin="0" end="3600" vehsPerHour="32.36" departLane="best" departPos="random" departSpeed="0" from="222682222#1" to="198876042#0"/>
  <flow id="motorcycle_222682222#1_193253427#0_000ea7c0" type="motorcycle" begin="0" end="3600" vehsPerHour="179.80" departLane="best" departPos="random" departSpeed="0" from="222682222#1" to="193253427#0"/>
  <flow id="motorcycle_222682222#1_198876043#0_000ea7c0" type="motorcycle" begin="0" end="3600" vehsPerHour="150.74" departLane="best" departPos="random" departSpeed="0" from="222682222#1" to="198876043#0"/>
  <flow id="motorcycle_222682222#1_28231434_000ea7c0" type="motorcycle" begin="0" end="3600" vehsPerHour="137.16" departLane="best" departPos="random" departSpeed="0" from="222682222#1" to="28231434"/>
  <flow id="motorcycle_222682222#1_23241821#0_000ea7c0" type="motorcycle" begin="0" end="3600" vehsPerHour="116.17" departLane="best" departPos="random" departSpeed="0" from="222682222#1" to="23241821#0"/>
  <flow id="motorcycle_222682222#1_198876042#0_000ea7c0" type="motorcycle" begin="0" end="3600" vehsPerHour="104.93" departLane="best" departPos="random" departSpeed="0" from="222682222#1" to="198876042#0"/>
  <flow id="car_193253433#2_198876043#0_000ea7c0" type="car" begin="0" end="3600" vehsPerHour="40.59" departLane="best" departPos="random" departSpeed="0" from="193253433#2" to="198876043#0"/>
  <flow id="car_193253433#2_28231434_000ea7c0" type="car" begin="0" end="3600" vehsPerHour="33.26" departLane="best" departPos="random" departSpeed="0" from="193253433#2" to="28231434"/>
  <flow id="car_193253433#2_23241821#0_000ea7c0" type="car" begin="0" end="3600" vehsPerHour="32.29" departLane="best" departPos="random" departSpeed="0" from="193253433#2" to="23241821#0"/>
  <flow id="car_193253433#2_198876042#0_000ea7c0" type="car" begin="0" end="3600" vehsPerHour="25.91" departLane="best" departPos="random" departSpeed="0" from="193253433#2" to="198876042#0"/>
  <flow id="car_193253433#2_193253427#0_000ea7c0" type="car" begin="0" end="3600" vehsPerHour="22.64" departLane="best" departPos="random" departSpeed="0" from="193253433#2" to="193253427#0"/>
  <flow id="motorcycle_193253433#2_198876043#0_000ea7c0" type="motorcycle" begin="0" end="3600" vehsPerHour="116.89" departLane="best" departPos="random" departSpeed="0" from="193253433#2" to="198876043#0"/>
  <flow id="motorcycle_193253433#2_28231434_000ea7c0" type="motorcycle" begin="0" end="3600" vehsPerHour="102.26" departLane="best" departPos="random" departSpeed="0" from="193253433#2" to="28231434"/>
  <flow id="motorcycle_193253433#2_23241821#0_000ea7c0" type="motorcycle" begin="0" end="3600" vehsPerHour="95.68" departLane="best" departPos="random" departSpeed="0" from="193253433#2" to="23241821#0"/>
  <flow id="motorcycle_193253433#2_198876042#0_000ea7c0" type="motorcycle" begin="0" end="3600" vehsPerHour="77.72" departLane="best" departPos="random" departSpeed="0" from="193253433#2" to="198876042#0"/>
  <flow id="motorcycle_193253433#2_193253427#0_000ea7c0" type="motorcycle" begin="0" end="3600" vehsPerHour="65.89" departLane="best" departPos="random" departSpeed="0" from="193253433#2" to="193253427#0"/>
  <flow id="car_198876045#1_28231434_000ea7c0" type="car" begin="0" end="3600" vehsPerHour="32.35" departLane="best" departPos="random" departSpeed="0" from="198876045#1" to="28231434"/>
  <flow id="car_198876045#1_23241821#0_000ea7c0" type="car" begin="0" end="3600" vehsPerHour="30.43" departLane="best" departPos="random" departSpeed="0" from="198876045#1" to="23241821#0"/>
  <flow id="car_198876045#1_198876042#0_000ea7c0" type="car" begin="0" end="3600" vehsPerHour="27.30" departLane="best" departPos="random" departSpeed="0" from="198876045#1" to="198876042#0"/>
  <flow id="car_198876045#1_193253427#0_000ea7c0" type="car" begin="0" end="3600" vehsPerHour="23.71" departLane="best" departPos="random" departSpeed="0" from="198876045#1" to="193253427#0"/>
  <flow id="car_198876045#1_198876043#2_000ea7c0" type="car" begin="0" end="3600" vehsPerHour="20.03" departLane="best" departPos="random" departSpeed="0" from="198876045#1" to="198876043#2"/>
  <flow id="motorcycle_198876045#1_28231434_000ea7c0" type="motorcycle" begin="0" end="3600" vehsPerHour="99.06" departLane="best" departPos="random" departSpeed="0" from="198876045#1" to="28231434"/>
  <flow id="motorcycle_198876045#1_23241821#0_000ea7c0" type="motorcycle" begin="0" end="3600" vehsPerHour="89.22" departLane="best" departPos="random" departSpeed="0" from="198876045#1" to="23241821#0"/>
  <flow id="motorcycle_198876045#1_198876042#0_000ea7c0" type="motorcycle" begin="0" end="3600" vehsPerHour="76.89" departLane="best" departPos="random" departSpeed="0" from="198876045#1" to="198876042#0"/>
  <flow id="motorcycle_198876045#1_193253427#0_000ea7c0" type="motorcycle" begin="0" end="3600" vehsPerHour="72.72" departLane="best" departPos="random" departSpeed="0" from="198876045#1" to="193253427#0"/>
  <flow id="motorcycle_198876045#1_198876043#2_000ea7c0" type="motorcycle" begin="0" end="3600" vehsPerHour="67.08" departLane="best" departPos="random" departSpeed="0" from="198876045#1" to="198876043#2"/>
  <flow id="car_-28231434_23241821#0_000ea7c0" type="car" begin="0" end="3600" vehsPerHour="23.14" departLane="best" departPos="random" departSpeed="0" from="-28231434" to="23241821#0"/>
  <flow id="car_-28231434_198876042#0_000ea7c0" type="car" begin="0" end="3600" vehsPerHour="20.93" departLane="best" departPos="random" departSpeed="0" from="-28231434" to="198876042#0"/>
  <flow id="car_-28231434_193253427#0_000ea7c0" type="car" begin="0" end="3600" vehsPerHour="16.02" departLane="best" departPos="random" departSpeed="0" from="-28231434" to="193253427#0"/>
  <flow id="car_-28231434_198876043#2_000ea7c0" type="car" begin="0" end="3600" vehsPerHour="17.24" departLane="best" departPos="random" departSpeed="0" from="-28231434" to="198876043#2"/>
  <flow id="car_-28231434_28231434_000ea7c0" type="car" begin="0" end="3600" vehsPerHour="13.33" departLane="best" departPos="random" departSpeed="0" from="-28231434" to="28231434"/>
  <flow id="motorcycle_-28231434_23241821#0_000ea7c0" type="motorcycle" begin="0" end="3600" vehsPerHour="64.95" departLane="best" departPos="random" departSpeed="0" from="-28231434" to="23241821#0"/>
  <flow id="motorcycle_-28231434_198876042#0_000ea7c0" type="motorcycle" begin="0" end="3600" vehsPerHour="60.18" departLane="best" departPos="random" departSpeed="0" from="-28231434" to="198876042#0"/>
  <flow id="motorcycle_-28231434_193253427#0_000ea7c0" type="motorcycle" begin="0" end="3600" vehsPerHour="54.83" departLane="best" departPos="random" departSpeed="0" from="-28231434" to="193253427#0"/>
  <flow id="motorcycle_-28231434_198876043#2_000ea7c0" type="motorcycle" begin="0" end="3600" vehsPerHour="47.66" departLane="best" departPos="random" departSpeed="0" from="-28231434" to="198876043#2"/>
  <flow id="motorcycle_-28231434_28231434_000ea7c0" type="motorcycle" begin="0" end="3600" vehsPerHour="39.32" departLane="best" departPos="random" departSpeed="0" from="-28231434" to="28231434"/>
  <flow id="car_-55029244#0_198876042#0_000ea7c0" type="car" begin="0" end="3600" vehsPerHour="26.88" departLane="best" departPos="random" departSpeed="0" from="-55029244#0" to="198876042#0"/>
  <flow id="car_-55029244#0_193253427#0_000ea7c0" type="car" begin="0" end="3600" vehsPerHour="24.21" departLane="best" departPos="random" departSpeed="0" from="-55029244#0" to="193253427#0"/>
  <flow id="car_-55029244#0_198876043#2_000ea7c0" type="car" begin="0" end="3600" vehsPerHour="19.23" departLane="best" departPos="random" departSpeed="0" from="-55029244#0" to="198876043#2"/>
  <flow id="car_-55029244#0_28231434_000ea7c0" type="car" begin="0" end="3600" vehsPerHour="17.21" departLane="best" departPos="random" departSpeed="0" from="-55029244#0" to="28231434"/>
  <flow id="car_-55029244#0_23241821#0_000ea7c0" type="car" begin="0" end="3600" vehsPerHour="13.94" departLane="best" departPos="random" departSpeed="0" from="-55029244#0" to="23241821#0"/>
  <flow id="motorcycle_-55029244#0_198876042#0_000ea7c0" type="motorcycle" begin="0" end="3600" vehsPerHour="77.64" departLane="best" departPos="random" departSpeed="0" from="-55029244#0" to="198876042#0"/>
  <flow id="motorcycle_-55029244#0_193253427#0_000ea7c0" type="motorcycle" begin="0" end="3600" vehsPerHour="70.40" departLane="best" departPos="random" departSpeed="0" from="-55029244#0" to="193253427#0"/>
  <flow id="motorcycle_-55029244#0_198876043#2_000ea7c0" type="motorcycle" begin="0" end="3600" vehsPerHour="58.55" departLane="best" departPos="random" departSpeed="0" from="-55029244#0" to="198876043#2"/>
  <flow id="motorcycle_-55029244#0_28231434_000ea7c0" type="motorcycle" begin="0" end="3600" vehsPerHour="54.52" departLane="best" departPos="random" departSpeed="0" from="-55029244#0" to="28231434"/>
  <flow id="motorcycle_-55029244#0_23241821#0_000ea7c0" type="motorcycle" begin="0" end="3600" vehsPerHour="46.10" departLane="best" departPos="random" departSpeed="0" from="-55029244#0" to="23241821#0"/>
  <flow id="car_34241530#0_198876042#0_000ea7c0" type="car" begin="0" end="3600" vehsPerHour="27.93" departLane="best" departPos="random" departSpeed="0" from="34241530#0" to="198876042#0"/>
  <flow id="car_34241530#0_193253427#0_000ea7c0" type="car" begin="0" end="3600" vehsPerHour="23.15" departLane="best" departPos="random" departSpeed="0" from="34241530#0" to="193253427#0"/>
  <flow id="car_34241530#0_198876043#2_000ea7c0" type="car" begin="0" end="3600" vehsPerHour="21.16" departLane="best" departPos="random" departSpeed="0" from="34241530#0" to="198876043#2"/>
  <flow id="car_34241530#0_28231434_000ea7c0" type="car" begin="0" end="3600" vehsPerHour="16.33" departLane="best" departPos="random" departSpeed="0" from="34241530#0" to="28231434"/>
  <flow id="car_34241530#0_23241821#0_000ea7c0" type="car" begin="0" end="3600" vehsPerHour="13.95" departLane="best" departPos="random" departSpeed="0" from="34241530#0" to="23241821#0"/>
  <flow id="motorcycle_34241530#0_198876042#0_000ea7c0" type="motorcycle" begin="0" end="3600" vehsPerHour="84.67" departLane="best" departPos="random" departSpeed="0" from="34241530#0" to="198876042#0"/>
  <flow id="motorcycle_34241530#0_193253427#0_000ea7c0" type="motorcycle" begin="0" end="3600" vehsPerHour="66.14" departLane="best" departPos="random" departSpeed="0" from="34241530#0" to="193253427#0"/>
  <flow id="motorcycle_34241530#0_198876043#2_000ea7c0" type="motorcycle" begin="0" end="3600" vehsPerHour="63.17" departLane="best" departPos="random" departSpeed="0" from="34241530#0" to="198876043#2"/>
  <flow id="motorcycle_34241530#0_28231434_000ea7c0" type="motorcycle" begin="0" end="3600" vehsPerHour="52.52" departLane="best" departPos="random" departSpeed="0" from="34241530#0" to="28231434"/>
  <flow id="motorcycle_34241530#0_23241821#0_000ea7c0" type="motorcycle" begin="0" end="3600" vehsPerHour="46.44" departLane="best" departPos="random" departSpeed="0" from="34241530#0" to="23241821#0"/>
  <flow id="truck_34241530#0_198876042#0_000ea7c0" type="truck" begin="0" end="3600" vehsPerHour="12.10" departLane="best" departPos="random" departSpeed="0" from="34241530#0" to="198876042#0"/>
</routes>
