<routes>
<vType id="car" vClass="passenger" accel="2.6" decel="4.5" sigma="0.5" length="5.0" maxSpeed="13.9"/>
<vType id="motorcycle" vClass="motorcycle" accel="3.0" decel="5.0" sigma="0.5" length="2.0" maxSpeed="14.0"/>
<vType id="truck" vClass="truck" accel="1.2" decel="3.5" sigma="0.5" length="12.0" maxSpeed="10.0"/>

  <flow id="car_222682222#1_193253427#0_000992ee" type="car" begin="0" end="3600" vehsPerHour="60.76" departLane="best" departPos="random" departSpeed="0" from="222682222#1" to="193253427#0"/>
  <flow id="car_222682222#1_198876043#0_000992ee" type="car" begin="0" end="3600" vehsPerHour="51.20" departLane="best" departPos="random" departSpeed="0" from="222682222#1" to="198876043#0"/>
  <flow id="car_222682222#1_28231434_000992ee" type="car" begin="0" end="3600" vehsPerHour="49.64" departLane="best" departPos="random" departSpeed="0" from="222682222#1" to="28231434"/>
  <flow id="car_222682222#1_23241821#0_000992ee" type="car" begin="0" end="3600" vehsPerHour="39.61" departLane="best" departPos="random" departSpeed="0" from="222682222#1" to="23241821#0"/>
  <flow id="car_222682222#1_198876042#0_000992ee" type="car" begin="0" end="3600" vehsPerHour="32.07" departLane="best" departPos="random" departSpeed="0" from="222682222#1" to="198876042#0"/>
  <flow id="motorcycle_222682222#1_193253427#0_000992ee" type="motorcycle" begin="0" end="3600" vehsPerHour="167.19" departLane="best" departPos="random" departSpeed="0" from="222682222#1" to="193253427#0"/>
  <flow id="motorcycle_222682222#1_198876043#0_000992ee" type="motorcycle" begin="0" end="3600" vehsPerHour="151.27" departLane="best" departPos="random" departSpeed="0" from="222682222#1" to="198876043#0"/>
  <flow id="motorcycle_222682222#1_28231434_000992ee" type="motorcycle" begin="0" end="3600" vehsPerHour="136.48" departLane="best" departPos="random" departSpeed="0" from="222682222#1" to="28231434"/>
  <flow id="motorcycle_222682222#1_23241821#0_000992ee" type="motorcycle" begin="0" end="3600" vehsPerHour="112.69" departLane="best" departPos="random" departSpeed="0" from="222682222#1" to="23241821#0"/>
  <flow id="motorcycle_222682222#1_198876042#0_000992ee" type="motorcycle" begin="0" end="3600" vehsPerHour="103.11" departLane="best" departPos="random" departSpeed="0" from="222682222#1" to="198876042#0"/>
  <flow id="car_193253433#2_198876043#0_000992ee" type="car" begin="0" end="3600" vehsPerHour="40.32" departLane="best" departPos="random" departSpeed="0" from="193253433#2" to="198876043#0"/>
  <flow id="car_193253433#2_28231434_000992ee" type="car" begin="0" end="3600" vehsPerHour="35.36" departLane="best" departPos="random" departSpeed="0" from="193253433#2" to="28231434"/>
  <flow id="car_193253433#2_23241821#0_000992ee" type="car" begin="0" end="3600" vehsPerHour="34.94" departLane="best" departPos="random" departSpeed="0" from="193253433#2" to="23241821#0"/>
  <flow id="car_193253433#2_198876042#0_000992ee" type="car" begin="0" end="3600" vehsPerHour="28.06" departLane="best" departPos="random" departSpeed="0" from="193253433#2" to="198876042#0"/>
  <flow id="car_193253433#2_193253427#0_000992ee" type="car" begin="0" end="3600" vehsPerHour="23.41" departLane="best" departPos="random" departSpeed="0" from="193253433#2" to="193253427#0"/>
  <flow id="motorcycle_193253433#2_198876043#0_000992ee" type="motorcycle" begin="0" end="3600" vehsPerHour="120.28" departLane="best" departPos="random" departSpeed="0" from="193253433#2" to="198876043#0"/>
  <flow id="motorcycle_193253433#2_28231434_000992ee" type="motorcycle" begin="0" end="3600" vehsPerHour="104.96" departLane="best" departPos="random" departSpeed="0" from="193253433#2" to="28231434"/>
  <flow id="motorcycle_193253433#2_23241821#0_000992ee" type="motorcycle" begin="0" end="3600" vehsPerHour="92.67" departLane="best" departPos="random" departSpeed="0" from="193253433#2" to="23241821#0"/>
  <flow id="motorcycle_193253433#2_198876042#0_000992ee" type="motorcycle" begin="0" end="3600" vehsPerHour="81.25" departLane="best" departPos="random" departSpeed="0" from="193253433#2" to="198876042#0"/>
  <flow id="motorcycle_193253433#2_193253427#0_000992ee" type="motorcycle" begin="0" end="3600" vehsPerHour="66.11" departLane="best" departPos="random" departSpeed="0" from="193253433#2" to="193253427#0"/>
  <flow id="car_198876045#1_28231434_000992ee" type="car" begin="0" end="3600" vehsPerHour="34.31" departLane="best" departPos="random" departSpeed="0" from="198876045#1" to="28231434"/>
  <flow id="car_198876045#1_23241821#0_000992ee" type="car" begin="0" end="3600" vehsPerHour="30.27" departLane="best" departPos="random" departSpeed="0" from="198876045#1" to="23241821#0"/>
  <flow id="car_198876045#1_198876042#0_000992ee" type="car" begin="0" end="3600" vehsPerHour="26.18" departLane="best" departPos="random" departSpeed="0" from="198876045#1" to="198876042#0"/>
  <flow id="car_198876045#1_193253427#0_000992ee" type="car" begin="0" end="3600" vehsPerHour="24.76" departLane="best" departPos="random" departSpeed="0" from="198876045#1" to="193253427#0"/>
  <flow id="car_198876045#1_198876043#2_000992ee" type="car" begin="0" end="3600" vehsPerHour="19.39" departLane="best" departPos="random" departSpeed="0" from="198876045#1" to="198876043#2"/>
  <flow id="motorcycle_198876045#1_28231434_000992ee" type="motorcycle" begin="0" end="3600" vehsPerHour="100.13" departLane="best" departPos="random" departSpeed="0" from="198876045#1" to="28231434"/>
  <flow id="motorcycle_198876045#1_23241821#0_000992ee" type="motorcycle" begin="0" end="3600" vehsPerHour="88.54" departLane="best" departPos="random" departSpeed="0" from="198876045#1" to="23241821#0"/>
  <flow id="motorcycle_198876045#1_198876042#0_000992ee" type="motorcycle" begin="0" end="3600" vehsPerHour="83.82" departLane="best" departPos="random" departSpeed="0" from="198876045#1" to="198876042#0"/>
  <flow id="motorcycle_198876045#1_193253427#0_000992ee" type="motorcycle" begin="0" end="3600" vehsPerHour="72.53" departLane="best" departPos="random" departSpeed="0" from="198876045#1" to="193253427#0"/>
  <flow id="motorcycle_198876045#1_198876043#2_000992ee" type="motorcycle" begin="0" end="3600" vehsPerHour="66.19" departLane="best" departPos="random" departSpeed="0" from="198876045#1" to="198876043#2"/>
  <flow id="car_-28231434_23241821#0_000992ee" type="car" begin="0" end="3600" vehsPerHour="22.94" departLane="best" departPos="random" departSpeed="0" from="-28231434" to="23241821#0"/>
  <flow id="car_-28231434_198876042#0_000992ee" type="car" begin="0" end="3600" vehsPerHour="21.07" departLane="best" departPos="random" departSpeed="0" from="-28231434" to="198876042#0"/>
  <flow id="car_-28231434_193253427#0_000992ee" type="car" begin="0" end="3600" vehsPerHour="17.36" departLane="best" departPos="random" departSpeed="0" from="-28231434" to="193253427#0"/>
  <flow id="car_-28231434_198876043#2_000992ee" type="car" begin="0" end="3600" vehsPerHour="16.43" departLane="best" departPos="random" departSpeed="0" from="-28231434" to="198876043#2"/>
  <flow id="car_-28231434_28231434_000992ee" type="car" begin="0" end="3600" vehsPerHour="13.87" departLane="best" departPos="random" departSpeed="0" from="-28231434" to="28231434"/>
  <flow id="motorcycle_-28231434_23241821#0_000992ee" type="motorcycle" begin="0" end="3600" vehsPerHour="68.11" departLane="best" departPos="random" departSpeed="0" from="-28231434" to="23241821#0"/>
  <flow id="motorcycle_-28231434_198876042#0_000992ee" type="motorcycle" begin="0" end="3600" vehsPerHour="61.86" departLane="best" departPos="random" departSpeed="0" from="-28231434" to="198876042#0"/>
  <flow id="motorcycle_-28231434_193253427#0_000992ee" type="motorcycle" begin="0" end="3600" vehsPerHour="56.22" departLane="best" departPos="random" departSpeed="0" from="-28231434" to="193253427#0"/>
  <flow id="motorcycle_-28231434_198876043#2_000992ee" type="motorcycle" begin="0" end="3600" vehsPerHour="45.99" departLane="best" departPos="random" departSpeed="0" from="-28231434" to="198876043#2"/>
  <flow id="motorcycle_-28231434_28231434_000992ee" type="motorcycle" begin="0" end="3600" vehsPerHour="41.42" departLane="best" departPos="random" departSpeed="0" from="-28231434" to="28231434"/>
  <flow id="car_-55029244#0_198876042#0_000992ee" type="car" begin="0" end="3600" vehsPerHour="26.93" departLane="best" departPos="random" departSpeed="0" from="-55029244#0" to="198876042#0"/>
  <flow id="car_-55029244#0_193253427#0_000992ee" type="car" begin="0" end="3600" vehsPerHour="22.92" departLane="best" departPos="random" departSpeed="0" from="-55029244#0" to="193253427#0"/>
  <flow id="car_-55029244#0_198876043#2_000992ee" type="car" begin="0" end="3600" vehsPerHour="19.40" departLane="best" departPos="random" departSpeed="0" from="-55029244#0" to="198876043#2"/>
  <flow id="car_-55029244#0_28231434_000992ee" type="car" begin="0" end="3600" vehsPerHour="17.58" departLane="best" departPos="random" departSpeed="0" from="-55029244#0" to="28231434"/>
  <flow id="car_-55029244#0_23241821#0_000992ee" type="car" begin="0" end="3600" vehsPerHour="13.21" departLane="best" departPos="random" departSpeed="0" from="-55029244#0" to="23241821#0"/>
  <flow id="motorcycle_-55029244#0_198876042#0_000992ee" type="motorcycle" begin="0" end="3600" vehsPerHour="77.50" departLane="best" departPos="random" departSpeed="0" from="-55029244#0" to="198876042#0"/>
  <flow id="motorcycle_-55029244#0_193253427#0_000992ee" type="motorcycle" begin="0" end="3600" vehsPerHour="69.61" departLane="best" departPos="random" departSpeed="0" from="-55029244#0" to="193253427#0"/>
  <flow id="motorcycle_-55029244#0_198876043#2_000992ee" type="motorcycle" begin="0" end="3600" vehsPerHour="59.09" departLane="best" departPos="random" departSpeed="0" from="-55029244#0" to="198876043#2"/>
  <flow id="motorcycle_-55029244#0_28231434_000992ee" type="motorcycle" begin="0" end="3600" vehsPerHour="55.13" departLane="best" departPos="random" departSpeed="0" from="-55029244#0" to="28231434"/>
  <flow id="motorcycle_-55029244#0_23241821#0_000992ee" type="motorcycle" begin="0" end="3600" vehsPerHour="49.07" departLane="best" departPos="random" departSpeed="0" from="-55029244#0" to="23241821#0"/>
  <flow id="car_34241530#0_198876042#0_000992ee" type="car" begin="0" end="3600" vehsPerHour="26.74" departLane="best" departPos="random" departSpeed="0" from="34241530#0" to="198876042#0"/>
  <flow id="car_34241530#0_193253427#0_000992ee" type="car" begin="0" end="3600" vehsPerHour="23.99" departLane="best" departPos="random" departSpeed="0" from="34241530#0" to="193253427#0"/>
  <flow id="car_34241530#0_198876043#2_000992ee" type="car" begin="0" end="3600" vehsPerHour="20.50" departLane="best" departPos="random" departSpeed="0" from="34241530#0" to="198876043#2"/>
  <flow id="car_34241530#0_28231434_000992ee" type="car" begin="0" end="3600" vehsPerHour="16.84" departLane="best" departPos="random" departSpeed="0" from="34241530#0" to="28231434"/>
  <flow id="car_34241530#0_23241821#0_000992ee" type="car" begin="0" end="3600" vehsPerHour="12.88" departLane="best" departPos="random" departSpeed="0" from="34241530#0" to="23241821#0"/>
  <flow id="motorcycle_34241530#0_198876042#0_000992ee" type="motorcycle" begin="0" end="3600" vehsPerHour="82.71" departLane="best" departPos="random" departSpeed="0" from="34241530#0" to="198876042#0"/>
  <flow id="motorcycle_34241530#0_193253427#0_000992ee" type="motorcycle" begin="0" end="3600" vehsPerHour="64.21" departLane="best" departPos="random" departSpeed="0" from="34241530#0" to="193253427#0"/>
  <flow id="motorcycle_34241530#0_198876043#2_000992ee" type="motorcycle" begin="0" end="3600" vehsPerHour="61.26" departLane="best" departPos="random" departSpeed="0" from="34241530#0" to="198876043#2"/>
  <flow id="motorcycle_34241530#0_28231434_000992ee" type="motorcycle" begin="0" end="3600" vehsPerHour="52.07" departLane="best" departPos="random" departSpeed="0" from="34241530#0" to="28231434"/>
  <flow id="motorcycle_34241530#0_23241821#0_000992ee" type="motorcycle" begin="0" end="3600" vehsPerHour="45.66" departLane="best" departPos="random" departSpeed="0" from="34241530#0" to="23241821#0"/>
  <flow id="truck_34241530#0_198876042#0_000992ee" type="truck" begin="0" end="3600" vehsPerHour="12.28" departLane="best" departPos="random" departSpeed="0" from="34241530#0" to="198876042#0"/>
</routes>
