<routes>
<vType id="car" vClass="passenger" accel="2.6" decel="4.5" sigma="0.5" length="5.0" maxSpeed="13.9"/>
<vType id="motorcycle" vClass="motorcycle" accel="3.0" decel="5.0" sigma="0.5" length="2.0" maxSpeed="14.0"/>
<vType id="truck" vClass="truck" accel="1.2" decel="3.5" sigma="0.5" length="12.0" maxSpeed="10.0"/>

  <flow id="car_222682222#1_193253427#0_00010d28" type="car" begin="0" end="3600" vehsPerHour="57.97" departLane="best" departPos="random" departSpeed="0" from="222682222#1" to="193253427#0"/>
  <flow id="car_222682222#1_198876043#0_00010d28" type="car" begin="0" end="3600" vehsPerHour="52.64" departLane="best" departPos="random" departSpeed="0" from="222682222#1" to="198876043#0"/>
  <flow id="car_222682222#1_28231434_00010d28" type="car" begin="0" end="3600" vehsPerHour="52.39" departLane="best" departPos="random" departSpeed="0" from="222682222#1" to="28231434"/>
  <flow id="car_222682222#1_23241821#0_00010d28" type="car" begin="0" end="3600" vehsPerHour="38.62" departLane="best" departPos="random" departSpeed="0" from="222682222#1" to="23241821#0"/>
  <flow id="car_222682222#1_198876042#0_00010d28" type="car" begin="0" end="3600" vehsPerHour="33.74" departLane="best" departPos="random" departSpeed="0" from="222682222#1" to="198876042#0"/>
  <flow id="motorcycle_222682222#1_193253427#0_00010d28" type="motorcycle" begin="0" end="3600" vehsPerHour="179.37" departLane="best" departPos="random" departSpeed="0" from="222682222#1" to="193253427#0"/>
  <flow id="motorcycle_222682222#1_198876043#0_00010d28" type="motorcycle" begin="0" end="3600" vehsPerHour="158.55" departLane="best" departPos="random" departSpeed="0" from="222682222#1" to="198876043#0"/>
  <flow id="motorcycle_222682222#1_28231434_00010d28" type="motorcycle" begin="0" end="3600" vehsPerHour="146.63" departLane="best" departPos="random" departSpeed="0" from="222682222#1" to="28231434"/>
  <flow id="motorcycle_222682222#1_23241821#0_00010d28" type="motorcycle" begin="0" end="3600" vehsPerHour="110.64" departLane="best" departPos="random" departSpeed="0" from="222682222#1" to="23241821#0"/>
  <flow id="motorcycle_222682222#1_198876042#0_00010d28" type="motorcycle" begin="0" end="3600" vehsPerHour="101.32" departLane="best" departPos="random" departSpeed="0" from="222682222#1" to="198876042#0"/>
  <flow id="car_193253433#2_198876043#0_00010d28" type="car" begin="0" end="3600" vehsPerHour="41.01" departLane="best" departPos="random" departSpeed="0" from="193253433#2" to="198876043#0"/>
  <flow id="car_193253433#2_28231434_00010d28" type="car" begin="0" end="3600" vehsPerHour="34.45" departLane="best" departPos="random" departSpeed="0" from="193253433#2" to="28231434"/>
  <flow id="car_193253433#2_23241821#0_00010d28" type="car" begin="0" end="3600" vehsPerHour="32.78" departLane="best" departPos="random" departSpeed="0" from="193253433#2" to="23241821#0"/>
  <flow id="car_193253433#2_198876042#0_00010d28" type="car" begin="0" end="3600" vehsPerHour="25.61" departLane="best" departPos="random" departSpeed="0" from="193253433#2" to="198876042#0"/>
  <flow id="car_193253433#2_193253427#0_00010d28" type="car" begin="0" end="3600" vehsPerHour="22.83" departLane="best" departPos="random" departSpeed="0" from="193253433#2" to="193253427#0"/>
  <flow id="motorcycle_193253433#2_198876043#0_00010d28" type="motorcycle" begin="0" end="3600" vehsPerHour="112.79" departLane="best" departPos="random" departSpeed="0" from="193253433#2" to="198876043#0"/>
  <flow id="motorcycle_193253433#2_28231434_00010d28" type="motorcycle" begin="0" end="3600" vehsPerHour="97.37" departLane="best" departPos="random" departSpeed="0" from="193253433#2" to="28231434"/>
  <flow id="motorcycle_193253433#2_23241821#0_00010d28" type="motorcycle" begin="0" end="3600" vehsPerHour="93.11" departLane="best" departPos="random" departSpeed="0" from="193253433#2" to="23241821#0"/>
  <flow id="motorcycle_193253433#2_198876042#0_00010d28" type="motorcycle" begin="0" end="3600" vehsPerHour="83.82" departLane="best" departPos="random" departSpeed="0" from="193253433#2" to="198876042#0"/>
  <flow id="motorcycle_193253433#2_193253427#0_00010d28" type="motorcycle" begin="0" end="3600" vehsPerHour="64.31" departLane="best" departPos="random" departSpeed="0" from="193253433#2" to="193253427#0"/>
  <flow id="car_198876045#1_28231434_00010d28" type="car" begin="0" end="3600" vehsPerHour="34.82" departLane="best" departPos="random" departSpeed="0" from="198876045#1" to="28231434"/>
  <flow id="car_198876045#1_23241821#0_00010d28" type="car" begin="0" end="3600" vehsPerHour="30.33" departLane="best" departPos="random" departSpeed="0" from="198876045#1" to="23241821#0"/>
  <flow id="car_198876045#1_198876042#0_00010d28" type="car" begin="0" end="3600" vehsPerHour="27.52" departLane="best" departPos="random" departSpeed="0" from="198876045#1" to="198876042#0"/>
  <flow id="car_198876045#1_193253427#0_00010d28" type="car" begin="0" end="3600" vehsPerHour="23.56" departLane="best" departPos="random" departSpeed="0" from="198876045#1" to="193253427#0"/>
  <flow id="car_198876045#1_198876043#2_00010d28" type="car" begin="0" end="3600" vehsPerHour="19.98" departLane="best" departPos="random" departSpeed="0" from="198876045#1" to="198876043#2"/>
  <flow id="motorcycle_198876045#1_28231434_00010d28" type="motorcycle" begin="0" end="3600" vehsPerHour="96.05" departLane="best" departPos="random" departSpeed="0" from="198876045#1" to="28231434"/>
  <flow id="motorcycle_198876045#1_23241821#0_00010d28" type="motorcycle" begin="0" end="3600" vehsPerHour="88.74" departLane="best" departPos="random" departSpeed="0" from="198876045#1" to="23241821#0"/>
  <flow id="motorcycle_198876045#1_198876042#0_00010d28" type="motorcycle" begin="0" end="3600" vehsPerHour="79.62" departLane="best" departPos="random" departSpeed="0" from="198876045#1" to="198876042#0"/>
  <flow id="motorcycle_198876045#1_193253427#0_00010d28" type="motorcycle" begin="0" end="3600" vehsPerHour="71.89" departLane="best" departPos="random" departSpeed="0" from="198876045#1" to="193253427#0"/>
  <flow id="motorcycle_198876045#1_198876043#2_00010d28" type="motorcycle" begin="0" end="3600" vehsPerHour="64.28" departLane="best" departPos="random" departSpeed="0" from="198876045#1" to="198876043#2"/>
  <flow id="car_-28231434_23241821#0_00010d28" type="car" begin="0" end="3600" vehsPerHour="23.06" departLane="best" departPos="random" departSpeed="0" from="-28231434" to="23241821#0"/>
  <flow id="car_-28231434_198876042#0_00010d28" type="car" begin="0" end="3600" vehsPerHour="20.17" departLane="best" departPos="random" departSpeed="0" from="-28231434" to="198876042#0"/>
  <flow id="car_-28231434_193253427#0_00010d28" type="car" begin="0" end="3600" vehsPerHour="17.22" departLane="best" departPos="random" departSpeed="0" from="-28231434" to="193253427#0"/>
  <flow id="car_-28231434_198876043#2_00010d28" type="car" begin="0" end="3600" vehsPerHour="16.16" departLane="best" departPos="random" departSpeed="0" from="-28231434" to="198876043#2"/>
  <flow id="car_-28231434_28231434_00010d28" type="car" begin="0" end="3600" vehsPerHour="13.90" departLane="best" departPos="random" departSpeed="0" from="-28231434" to="28231434"/>
  <flow id="motorcycle_-28231434_23241821#0_00010d28" type="motorcycle" begin="0" end="3600" vehsPerHour="68.21" departLane="best" departPos="random" departSpeed="0" from="-28231434" to="23241821#0"/>
  <flow id="motorcycle_-28231434_198876042#0_00010d28" type="motorcycle" begin="0" end="3600" vehsPerHour="62.50" departLane="best" departPos="random" departSpeed="0" from="-28231434" to="198876042#0"/>
  <flow id="motorcycle_-28231434_193253427#0_00010d28" type="motorcycle" begin="0" end="3600" vehsPerHour="53.70" departLane="best" departPos="random" departSpeed="0" from="-28231434" to="193253427#0"/>
  <flow id="motorcycle_-28231434_198876043#2_00010d28" type="motorcycle" begin="0" end="3600" vehsPerHour="44.86" departLane="best" departPos="random" departSpeed="0" from="-28231434" to="198876043#2"/>
  <flow id="motorcycle_-28231434_28231434_00010d28" type="motorcycle" begin="0" end="3600" vehsPerHour="42.00" departLane="best" departPos="random" departSpeed="0" from="-28231434" to="28231434"/>
  <flow id="car_-55029244#0_198876042#0_00010d28" type="car" begin="0" end="3600" vehsPerHour="27.00" departLane="best" departPos="random" departSpeed="0" from="-55029244#0" to="198876042#0"/>
  <flow id="car_-55029244#0_193253427#0_00010d28" type="car" begin="0" end="3600" vehsPerHour="24.17" departLane="best" departPos="random" departSpeed="0" from="-55029244#0" to="193253427#0"/>
  <flow id="car_-55029244#0_198876043#2_00010d28" type="car" begin="0" end="3600" vehsPerHour="19.79" departLane="best" departPos="random" departSpeed="0" from="-55029244#0" to="198876043#2"/>
  <flow id="car_-55029244#0_28231434_00010d28" type="car" begin="0" end="3600" vehsPerHour="16.78" departLane="best" departPos="random" departSpeed="0" from="-55029244#0" to="28231434"/>
  <flow id="car_-55029244#0_23241821#0_00010d28" type="car" begin="0" end="3600" vehsPerHour="13.31" departLane="best" departPos="random" departSpeed="0" from="-55029244#0" to="23241821#0"/>
  <flow id="motorcycle_-55029244#0_198876042#0_00010d28" type="motorcycle" begin="0" end="3600" vehsPerHour="81.97" departLane="best" departPos="random" departSpeed="0" from="-55029244#0" to="198876042#0"/>
  <flow id="motorcycle_-55029244#0_193253427#0_00010d28" type="motorcycle" begin="0" end="3600" vehsPerHour="70.14" departLane="best" departPos="random" departSpeed="0" from="-55029244#0" to="193253427#0"/>
  <flow id="motorcycle_-55029244#0_198876043#2_00010d28" type="motorcycle" begin="0" end="3600" vehsPerHour="62.66" departLane="best" departPos="random" departSpeed="0" from="-55029244#0" to="198876043#2"/>
  <flow id="motorcycle_-55029244#0_28231434_00010d28" type="motorcycle" begin="0" end="3600" vehsPerHour="53.29" departLane="best" departPos="random" departSpeed="0" from="-55029244#0" to="28231434"/>
  <flow id="motorcycle_-55029244#0_23241821#0_00010d28" type="motorcycle" begin="0" end="3600" vehsPerHour="47.65" departLane="best" departPos="random" departSpeed="0" from="-55029244#0" to="23241821#0"/>
  <flow id="car_34241530#0_198876042#0_00010d28" type="car" begin="0" end="3600" vehsPerHour="27.57" departLane="best" departPos="random" departSpeed="0" from="34241530#0" to="198876042#0"/>
  <flow id="car_34241530#0_193253427#0_00010d28" type="car" begin="0" end="3600" vehsPerHour="23.68" departLane="best" departPos="random" departSpeed="0" from="34241530#0" to="193253427#0"/>
  <flow id="car_34241530#0_198876043#2_00010d28" type="car" begin="0" end="3600" vehsPerHour="19.77" departLane="best" departPos="random" departSpeed="0" from="34241530#0" to="198876043#2"/>
  <flow id="car_34241530#0_28231434_00010d28" type="car" begin="0" end="3600" vehsPerHour="16.32" departLane="best" departPos="random" departSpeed="0" from="34241530#0" to="28231434"/>
  <flow id="car_34241530#0_23241821#0_00010d28" type="car" begin="0" end="3600" vehsPerHour="13.03" departLane="best" departPos="random" departSpeed="0" from="34241530#0" to="23241821#0"/>
  <flow id="motorcycle_34241530#0_198876042#0_00010d28" type="motorcycle" begin="0" end="3600" vehsPerHour="79.94" departLane="best" departPos="random" departSpeed="0" from="34241530#0" to="198876042#0"/>
  <flow id="motorcycle_34241530#0_193253427#0_00010d28" type="motorcycle" begin="0" end="3600" vehsPerHour="69.93" departLane="best" departPos="random" departSpeed="0" from="34241530#0" to="193253427#0"/>
  <flow id="motorcycle_34241530#0_198876043#2_00010d28" type="motorcycle" begin="0" end="3600" vehsPerHour="58.28" departLane="best" departPos="random" departSpeed="0" from="34241530#0" to="198876043#2"/>
  <flow id="motorcycle_34241530#0_28231434_00010d28" type="motorcycle" begin="0" end="3600" vehsPerHour="53.09" departLane="best" departPos="random" departSpeed="0" from="34241530#0" to="28231434"/>
  <flow id="motorcycle_34241530#0_23241821#0_00010d28" type="motorcycle" begin="0" end="3600" vehsPerHour="47.13" departLane="best" departPos="random" departSpeed="0" from="34241530#0" to="23241821#0"/>
  <flow id="truck_34241530#0_198876042#0_00010d28" type="truck" begin="0" end="3600" vehsPerHour="11.78" departLane="best" departPos="random" departSpeed="0" from="34241530#0" to="198876042#0"/>
</routes>
