<routes>
<vType id="car" vClass="passenger" accel="2.6" decel="4.5" sigma="0.5" length="5.0" maxSpeed="13.9"/>
<vType id="motorcycle" vClass="motorcycle" accel="3.0" decel="5.0" sigma="0.5" length="2.0" maxSpeed="14.0"/>
<vType id="truck" vClass="truck" accel="1.2" decel="3.5" sigma="0.5" length="12.0" maxSpeed="10.0"/>

  <flow id="car_222682222#1_193253427#0_0007b0c5" type="car" begin="0" end="3600" vehsPerHour="63.08" departLane="best" departPos="random" departSpeed="0" from="222682222#1" to="193253427#0"/>
  <flow id="car_222682222#1_198876043#0_0007b0c5" type="car" begin="0" end="3600" vehsPerHour="51.88" departLane="best" departPos="random" departSpeed="0" from="222682222#1" to="198876043#0"/>
  <flow id="car_222682222#1_28231434_0007b0c5" type="car" begin="0" end="3600" vehsPerHour="50.27" departLane="best" departPos="random" departSpeed="0" from="222682222#1" to="28231434"/>
  <flow id="car_222682222#1_23241821#0_0007b0c5" type="car" begin="0" end="3600" vehsPerHour="38.72" departLane="best" departPos="random" departSpeed="0" from="222682222#1" to="23241821#0"/>
  <flow id="car_222682222#1_198876042#0_0007b0c5" type="car" begin="0" end="3600" vehsPerHour="34.03" departLane="best" departPos="random" departSpeed="0" from="222682222#1" to="198876042#0"/>
  <flow id="motorcycle_222682222#1_193253427#0_0007b0c5" type="motorcycle" begin="0" end="3600" vehsPerHour="177.42" departLane="best" departPos="random" departSpeed="0" from="222682222#1" to="193253427#0"/>
  <flow id="motorcycle_222682222#1_198876043#0_0007b0c5" type="motorcycle" begin="0" end="3600" vehsPerHour="155.25" departLane="best" departPos="random" departSpeed="0" from="222682222#1" to="198876043#0"/>
  <flow id="motorcycle_222682222#1_28231434_0007b0c5" type="motorcycle" begin="0" end="3600" vehsPerHour="147.97" departLane="best" departPos="random" departSpeed="0" from="222682222#1" to="28231434"/>
  <flow id="motorcycle_222682222#1_23241821#0_0007b0c5" type="motorcycle" begin="0" end="3600" vehsPerHour="118.12" departLane="best" departPos="random" departSpeed="0" from="222682222#1" to="23241821#0"/>
  <flow id="motorcycle_222682222#1_198876042#0_0007b0c5" type="motorcycle" begin="0" end="3600" vehsPerHour="96.26" departLane="best" departPos="random" departSpeed="0" from="222682222#1" to="198876042#0"/>
  <flow id="car_193253433#2_198876043#0_0007b0c5" type="car" begin="0" end="3600" vehsPerHour="40.61" departLane="best" departPos="random" departSpeed="0" from="193253433#2" to="198876043#0"/>
  <flow id="car_193253433#2_28231434_0007b0c5" type="car" begin="0" end="3600" vehsPerHour="32.28" departLane="best" departPos="random" departSpeed="0" from="193253433#2" to="28231434"/>
  <flow id="car_193253433#2_23241821#0_0007b0c5" type="car" begin="0" end="3600" vehsPerHour="33.07" departLane="best" departPos="random" departSpeed="0" from="193253433#2" to="23241821#0"/>
  <flow id="car_193253433#2_198876042#0_0007b0c5" type="car" begin="0" end="3600" vehsPerHour="27.94" departLane="best" departPos="random" departSpeed="0" from="193253433#2" to="198876042#0"/>
  <flow id="car_193253433#2_193253427#0_0007b0c5" type="car" begin="0" end="3600" vehsPerHour="23.23" departLane="best" departPos="random" departSpeed="0" from="193253433#2" to="193253427#0"/>
  <flow id="motorcycle_193253433#2_198876043#0_0007b0c5" type="motorcycle" begin="0" end="3600" vehsPerHour="115.64" departLane="best" departPos="random" departSpeed="0" from="193253433#2" to="198876043#0"/>
  <flow id="motorcycle_193253433#2_28231434_0007b0c5" type="motorcycle" begin="0" end="3600" vehsPerHour="97.85" departLane="best" departPos="random" departSpeed="0" from="193253433#2" to="28231434"/>
  <flow id="motorcycle_193253433#2_23241821#0_0007b0c5" type="motorcycle" begin="0" end="3600" vehsPerHour="96.38" departLane="best" departPos="random" departSpeed="0" from="193253433#2" to="23241821#0"/>
  <flow id="motorcycle_193253433#2_198876042#0_0007b0c5" type="motorcycle" begin="0" end="3600" vehsPerHour="78.06" departLane="best" departPos="random" departSpeed="0" from="193253433#2" to="198876042#0"/>
  <flow id="motorcycle_193253433#2_193253427#0_0007b0c5" type="motorcycle" begin="0" end="3600" vehsPerHour="65.65" departLane="best" departPos="random" departSpeed="0" from="193253433#2" to="193253427#0"/>
  <flow id="car_198876045#1_28231434_0007b0c5" type="car" begin="0" end="3600" vehsPerHour="33.56" departLane="best" departPos="random" departSpeed="0" from="198876045#1" to="28231434"/>
  <flow id="car_198876045#1_23241821#0_0007b0c5" type="car" begin="0" end="3600" vehsPerHour="30.70" departLane="best" departPos="random" departSpeed="0" from="198876045#1" to="23241821#0"/>
  <flow id="car_198876045#1_198876042#0_0007b0c5" type="car" begin="0" end="3600" vehsPerHour="27.79" departLane="best" departPos="random" departSpeed="0" from="198876045#1" to="198876042#0"/>
  <flow id="car_198876045#1_193253427#0_0007b0c5" type="car" begin="0" end="3600" vehsPerHour="22.60" departLane="best" departPos="random" departSpeed="0" from="198876045#1" to="193253427#0"/>
  <flow id="car_198876045#1_198876043#2_0007b0c5" type="car" begin="0" end="3600" vehsPerHour="20.64" departLane="best" departPos="random" departSpeed="0" from="198876045#1" to="198876043#2"/>
  <flow id="motorcycle_198876045#1_28231434_0007b0c5" type="motorcycle" begin="0" end="3600" vehsPerHour="103.04" departLane="best" departPos="random" departSpeed="0" from="198876045#1" to="28231434"/>
  <flow id="motorcycle_198876045#1_23241821#0_0007b0c5" type="motorcycle" begin="0" end="3600" vehsPerHour="83.62" departLane="best" departPos="random" departSpeed="0" from="198876045#1" to="23241821#0"/>
  <flow id="motorcycle_198876045#1_198876042#0_0007b0c5" type="motorcycle" begin="0" end="3600" vehsPerHour="82.46" departLane="best" departPos="random" departSpeed="0" from="198876045#1" to="198876042#0"/>
  <flow id="motorcycle_198876045#1_193253427#0_0007b0c5" type="motorcycle" begin="0" end="3600" vehsPerHour="77.15" departLane="best" departPos="random" departSpeed="0" from="198876045#1" to="193253427#0"/>
  <flow id="motorcycle_198876045#1_198876043#2_0007b0c5" type="motorcycle" begin="0" end="3600" vehsPerHour="69.51" departLane="best" departPos="random" departSpeed="0" from="198876045#1" to="198876043#2"/>
  <flow id="car_-28231434_23241821#0_0007b0c5" type="car" begin="0" end="3600" vehsPerHour="23.16" departLane="best" departPos="random" departSpeed="0" from="-28231434" to="23241821#0"/>
  <flow id="car_-28231434_198876042#0_0007b0c5" type="car" begin="0" end="3600" vehsPerHour="20.48" departLane="best" departPos="random" departSpeed="0" from="-28231434" to="198876042#0"/>
  <flow id="car_-28231434_193253427#0_0007b0c5" type="car" begin="0" end="3600" vehsPerHour="17.46" departLane="best" departPos="random" departSpeed="0" from="-28231434" to="193253427#0"/>
  <flow id="car_-28231434_198876043#2_0007b0c5" type="car" begin="0" end="3600" vehsPerHour="16.30" departLane="best" departPos="random" departSpeed="0" from="-28231434" to="198876043#2"/>
  <flow id="car_-28231434_28231434_0007b0c5" type="car" begin="0" end="3600" vehsPerHour="13.87" departLane="best" departPos="random" departSpeed="0" from="-28231434" to="28231434"/>
  <flow id="motorcycle_-28231434_23241821#0_0007b0c5" type="motorcycle" begin="0" end="3600" vehsPerHour="64.21" departLane="best" departPos="random" departSpeed="0" from="-28231434" to="23241821#0"/>
  <flow id="motorcycle_-28231434_198876042#0_0007b0c5" type="motorcycle" begin="0" end="3600" vehsPerHour="57.97" departLane="best" departPos="random" departSpeed="0" from="-28231434" to="198876042#0"/>
  <flow id="motorcycle_-28231434_193253427#0_0007b0c5" type="motorcycle" begin="0" end="3600" vehsPerHour="53.84" departLane="best" departPos="random" departSpeed="0" from="-28231434" to="193253427#0"/>
  <flow id="motorcycle_-28231434_198876043#2_0007b0c5" type="motorcycle" begin="0" end="3600" vehsPerHour="47.20" departLane="best" departPos="random" departSpeed="0" from="-28231434" to="198876043#2"/>
  <flow id="motorcycle_-28231434_28231434_0007b0c5" type="motorcycle" begin="0" end="3600" vehsPerHour="38.67" departLane="best" departPos="random" departSpeed="0" from="-28231434" to="28231434"/>
  <flow id="car_-55029244#0_198876042#0_0007b0c5" type="car" begin="0" end="3600" vehsPerHour="25.85" departLane="best" departPos="random" departSpeed="0" from="-55029244#0" to="198876042#0"/>
  <flow id="car_-55029244#0_193253427#0_0007b0c5" type="car" begin="0" end="3600" vehsPerHour="24.70" departLane="best" departPos="random" departSpeed="0" from="-55029244#0" to="193253427#0"/>
  <flow id="car_-55029244#0_198876043#2_0007b0c5" type="car" begin="0" end="3600" vehsPerHour="19.52" departLane="best" departPos="random" departSpeed="0" from="-55029244#0" to="198876043#2"/>
  <flow id="car_-55029244#0_28231434_0007b0c5" type="car" begin="0" end="3600" vehsPerHour="17.35" departLane="best" departPos="random" departSpeed="0" from="-55029244#0" to="28231434"/>
  <flow id="car_-55029244#0_23241821#0_0007b0c5" type="car" begin="0" end="3600" vehsPerHour="13.28" departLane="best" departPos="random" departSpeed="0" from="-55029244#0" to="23241821#0"/>
  <flow id="motorcycle_-55029244#0_198876042#0_0007b0c5" type="motorcycle" begin="0" end="3600" vehsPerHour="76.97" departLane="best" departPos="random" departSpeed="0" from="-55029244#0" to="198876042#0"/>
  <flow id="motorcycle_-55029244#0_193253427#0_0007b0c5" type="motorcycle" begin="0" end="3600" vehsPerHour="66.76" departLane="best" departPos="random" departSpeed="0" from="-55029244#0" to="193253427#0"/>
  <flow id="motorcycle_-55029244#0_198876043#2_0007b0c5" type="motorcycle" begin="0" end="3600" vehsPerHour="61.02" departLane="best" departPos="random" departSpeed="0" from="-55029244#0" to="198876043#2"/>
  <flow id="motorcycle_-55029244#0_28231434_0007b0c5" type="motorcycle" begin="0" end="3600" vehsPerHour="55.84" departLane="best" departPos="random" departSpeed="0" from="-55029244#0" to="28231434"/>
  <flow id="motorcycle_-55029244#0_23241821#0_0007b0c5" type="motorcycle" begin="0" end="3600" vehsPerHour="48.31" departLane="best" departPos="random" departSpeed="0" from="-55029244#0" to="23241821#0"/>
  <flow id="car_34241530#0_198876042#0_0007b0c5" type="car" begin="0" end="3600" vehsPerHour="26.55" departLane="best" departPos="random" departSpeed="0" from="34241530#0" to="198876042#0"/>
  <flow id="car_34241530#0_193253427#0_0007b0c5" type="car" begin="0" end="3600" vehsPerHour="23.41" departLane="best" departPos="random" departSpeed="0" from="34241530#0" to="193253427#0"/>
  <flow id="car_34241530#0_198876043#2_0007b0c5" type="car" begin="0" end="3600" vehsPerHour="20.69" departLane="best" departPos="random" departSpeed="0" from="34241530#0" to="198876043#2"/>
  <flow id="car_34241530#0_28231434_0007b0c5" type="car" begin="0" end="3600" vehsPerHour="16.27" departLane="best" departPos="random" departSpeed="0" from="34241530#0" to="28231434"/>
  <flow id="car_34241530#0_23241821#0_0007b0c5" type="car" begin="0" end="3600" vehsPerHour="13.54" departLane="best" departPos="random" departSpeed="0" from="34241530#0" to="23241821#0"/>
  <flow id="motorcycle_34241530#0_198876042#0_0007b0c5" type="motorcycle" begin="0" end="3600" vehsPerHour="77.96" departLane="best" departPos="random" departSpeed="0" from="34241530#0" to="198876042#0"/>
  <flow id="motorcycle_34241530#0_193253427#0_0007b0c5" type="motorcycle" begin="0" end="3600" vehsPerHour="66.09" departLane="best" departPos="random" departSpeed="0" from="34241530#0" to="193253427#0"/>
  <flow id="motorcycle_34241530#0_198876043#2_0007b0c5" type="motorcycle" begin="0" end="3600" vehsPerHour="57.68" departLane="best" departPos="random" departSpeed="0" from="34241530#0" to="198876043#2"/>
  <flow id="motorcycle_34241530#0_28231434_0007b0c5" type="motorcycle" begin="0" end="3600" vehsPerHour="53.28" departLane="best" departPos="random" departSpeed="0" from="34241530#0" to="28231434"/>
  <flow id="motorcycle_34241530#0_23241821#0_0007b0c5" type="motorcycle" begin="0" end="3600" vehsPerHour="48.87" departLane="best" departPos="random" departSpeed="0" from="34241530#0" to="23241821#0"/>
  <flow id="truck_34241530#0_198876042#0_0007b0c5" type="truck" begin="0" end="3600" vehsPerHour="12.36" departLane="best" departPos="random" departSpeed="0" from="34241530#0" to="198876042#0"/>
</routes>
