<routes>
<vType id="car" vClass="passenger" accel="2.6" decel="4.5" sigma="0.5" length="5.0" maxSpeed="13.9"/>
<vType id="motorcycle" vClass="motorcycle" accel="3.0" decel="5.0" sigma="0.5" length="2.0" maxSpeed="14.0"/>
<vType id="truck" vClass="truck" accel="1.2" decel="3.5" sigma="0.5" length="12.0" maxSpeed="10.0"/>

  <flow id="car_222682222#1_193253427#0_00082ea2" type="car" begin="0" end="3600" vehsPerHour="58.30" departLane="best" departPos="random" departSpeed="0" from="222682222#1" to="193253427#0"/>
  <flow id="car_222682222#1_198876043#0_00082ea2" type="car" begin="0" end="3600" vehsPerHour="48.84" departLane="best" departPos="random" departSpeed="0" from="222682222#1" to="198876043#0"/>
  <flow id="car_222682222#1_28231434_00082ea2" type="car" begin="0" end="3600" vehsPerHour="49.22" departLane="best" departPos="random" departSpeed="0" from="222682222#1" to="28231434"/>
  <flow id="car_222682222#1_23241821#0_00082ea2" type="car" begin="0" end="3600" vehsPerHour="40.14" departLane="best" departPos="random" departSpeed="0" from="222682222#1" to="23241821#0"/>
  <flow id="car_222682222#1_198876042#0_00082ea2" type="car" begin="0" end="3600" vehsPerHour="33.31" departLane="best" departPos="random" departSpeed="0" from="222682222#1" to="198876042#0"/>
  <flow id="motorcycle_222682222#1_193253427#0_00082ea2" type="motorcycle" begin="0" end="3600" vehsPerHour="169.82" departLane="best" departPos="random" departSpeed="0" from="222682222#1" to="193253427#0"/>
  <flow id="motorcycle_222682222#1_198876043#0_00082ea2" type="motorcycle" begin="0" end="3600" vehsPerHour="152.46" departLane="best" departPos="random" departSpeed="0" from="222682222#1" to="198876043#0"/>
  <flow id="motorcycle_222682222#1_28231434_00082ea2" type="motorcycle" begin="0" end="3600" vehsPerHour="141.78" departLane="best" departPos="random" departSpeed="0" from="222682222#1" to="28231434"/>
  <flow id="motorcycle_222682222#1_23241821#0_00082ea2" type="motorcycle" begin="0" end="3600" vehsPerHour="110.76" departLane="best" departPos="random" departSpeed="0" from="222682222#1" to="23241821#0"/>
  <flow id="motorcycle_222682222#1_198876042#0_00082ea2" type="motorcycle" begin="0" end="3600" vehsPerHour="99.16" departLane="best" departPos="random" departSpeed="0" from="222682222#1" to="198876042#0"/>
  <flow id="car_193253433#2_198876043#0_00082ea2" type="car" begin="0" end="3600" vehsPerHour="38.50" departLane="best" departPos="random" departSpeed="0" from="193253433#2" to="198876043#0"/>
  <flow id="car_193253433#2_28231434_00082ea2" type="car" begin="0" end="3600" vehsPerHour="34.97" departLane="best" departPos="random" departSpeed="0" from="193253433#2" to="28231434"/>
  <flow id="car_193253433#2_23241821#0_00082ea2" type="car" begin="0" end="3600" vehsPerHour="34.07" departLane="best" departPos="random" departSpeed="0" from="193253433#2" to="23241821#0"/>
  <flow id="car_193253433#2_198876042#0_00082ea2" type="car" begin="0" end="3600" vehsPerHour="25.83" departLane="best" departPos="random" departSpeed="0" from="193253433#2" to="198876042#0"/>
  <flow id="car_193253433#2_193253427#0_00082ea2" type="car" begin="0" end="3600" vehsPerHour="22.58" departLane="best" departPos="random" departSpeed="0" from="193253433#2" to="193253427#0"/>
  <flow id="motorcycle_193253433#2_198876043#0_00082ea2" type="motorcycle" begin="0" end="3600" vehsPerHour="111.41" departLane="best" departPos="random" departSpeed="0" from="193253433#2" to="198876043#0"/>
  <flow id="motorcycle_193253433#2_28231434_00082ea2" type="motorcycle" begin="0" end="3600" vehsPerHour="100.73" departLane="best" departPos="random" departSpeed="0" from="193253433#2" to="28231434"/>
  <flow id="motorcycle_193253433#2_23241821#0_00082ea2" type="motorcycle" begin="0" end="3600" vehsPerHour="90.57" departLane="best" departPos="random" departSpeed="0" from="193253433#2" to="23241821#0"/>
  <flow id="motorcycle_193253433#2_198876042#0_00082ea2" type="motorcycle" begin="0" end="3600" vehsPerHour="79.67" departLane="best" departPos="random" departSpeed="0" from="193253433#2" to="198876042#0"/>
  <flow id="motorcycle_193253433#2_193253427#0_00082ea2" type="motorcycle" begin="0" end="3600" vehsPerHour="70.23" departLane="best" departPos="random" departSpeed="0" from="193253433#2" to="193253427#0"/>
  <flow id="car_198876045#1_28231434_00082ea2" type="car" begin="0" end="3600" vehsPerHour="35.37" departLane="best" departPos="random" departSpeed="0" from="198876045#1" to="28231434"/>
  <flow id="car_198876045#1_23241821#0_00082ea2" type="car" begin="0" end="3600" vehsPerHour="30.30" departLane="best" departPos="random" departSpeed="0" from="198876045#1" to="23241821#0"/>
  <flow id="car_198876045#1_198876042#0_00082ea2" type="car" begin="0" end="3600" vehsPerHour="27.45" departLane="best" departPos="random" departSpeed="0" from="198876045#1" to="198876042#0"/>
  <flow id="car_198876045#1_193253427#0_00082ea2" type="car" begin="0" end="3600" vehsPerHour="22.63" departLane="best" departPos="random" departSpeed="0" from="198876045#1" to="193253427#0"/>
  <flow id="car_198876045#1_198876043#2_00082ea2" type="car" begin="0" end="3600" vehsPerHour="21.10" departLane="best" departPos="random" departSpeed="0" from="198876045#1" to="198876043#2"/>
  <flow id="motorcycle_198876045#1_28231434_00082ea2" type="motorcycle" begin="0" end="3600" vehsPerHour="99.48" departLane="best" departPos="random" departSpeed="0" from="198876045#1" to="28231434"/>
  <flow id="motorcycle_198876045#1_23241821#0_00082ea2" type="motorcycle" begin="0" end="3600" vehsPerHour="87.81" departLane="best" departPos="random" departSpeed="0" from="198876045#1" to="23241821#0"/>
  <flow id="motorcycle_198876045#1_198876042#0_00082ea2" type="motorcycle" begin="0" end="3600" vehsPerHour="84.14" departLane="best" departPos="random" departSpeed="0" from="198876045#1" to="198876042#0"/>
  <flow id="motorcycle_198876045#1_193253427#0_00082ea2" type="motorcycle" begin="0" end="3600" vehsPerHour="74.55" departLane="best" departPos="random" departSpeed="0" from="198876045#1" to="193253427#0"/>
  <flow id="motorcycle_198876045#1_198876043#2_00082ea2" type="motorcycle" begin="0" end="3600" vehsPerHour="70.52" departLane="best" departPos="random" departSpeed="0" from="198876045#1" to="198876043#2"/>
  <flow id="car_-28231434_23241821#0_00082ea2" type="car" begin="0" end="3600" vehsPerHour="23.72" departLane="best" departPos="random" departSpeed="0" from="-28231434" to="23241821#0"/>
  <flow id="car_-28231434_198876042#0_00082ea2" type="car" begin="0" end="3600" vehsPerHour="20.97" departLane="best" departPos="random" departSpeed="0" from="-28231434" to="198876042#0"/>
  <flow id="car_-28231434_193253427#0_00082ea2" type="car" begin="0" end="3600" vehsPerHour="16.51" departLane="best" departPos="random" departSpeed="0" from="-28231434" to="193253427#0"/>
  <flow id="car_-28231434_198876043#2_00082ea2" type="car" begin="0" end="3600" vehsPerHour="16.80" departLane="best" departPos="random" departSpeed="0" from="-28231434" to="198876043#2"/>
  <flow id="car_-28231434_28231434_00082ea2" type="car" begin="0" end="3600" vehsPerHour="13.10" departLane="best" departPos="random" departSpeed="0" from="-28231434" to="28231434"/>
  <flow id="motorcycle_-28231434_23241821#0_00082ea2" type="motorcycle" begin="0" end="3600" vehsPerHour="66.54" departLane="best" departPos="random" departSpeed="0" from="-28231434" to="23241821#0"/>
  <flow id="motorcycle_-28231434_198876042#0_00082ea2" type="motorcycle" begin="0" end="3600" vehsPerHour="60.21" departLane="best" departPos="random" departSpeed="0" from="-28231434" to="198876042#0"/>
  <flow id="motorcycle_-28231434_193253427#0_00082ea2" type="motorcycle" begin="0" end="3600" vehsPerHour="53.43" departLane="best" departPos="random" departSpeed="0" from="-28231434" to="193253427#0"/>
  <flow id="motorcycle_-28231434_198876043#2_00082ea2" type="motorcycle" begin="0" end="3600" vehsPerHour="46.06" departLane="best" departPos="random" departSpeed="0" from="-28231434" to="198876043#2"/>
  <flow id="motorcycle_-28231434_28231434_00082ea2" type="motorcycle" begin="0" end="3600" vehsPerHour="38.87" departLane="best" departPos="random" departSpeed="0" from="-28231434" to="28231434"/>
  <flow id="car_-55029244#0_198876042#0_00082ea2" type="car" begin="0" end="3600" vehsPerHour="26.25" departLane="best" departPos="random" departSpeed="0" from="-55029244#0" to="198876042#0"/>
  <flow id="car_-55029244#0_193253427#0_00082ea2" type="car" begin="0" end="3600" vehsPerHour="23.19" departLane="best" departPos="random" departSpeed="0" from="-55029244#0" to="193253427#0"/>
  <flow id="car_-55029244#0_198876043#2_00082ea2" type="car" begin="0" end="3600" vehsPerHour="19.87" departLane="best" departPos="random" departSpeed="0" from="-55029244#0" to="198876043#2"/>
  <flow id="car_-55029244#0_28231434_00082ea2" type="car" begin="0" end="3600" vehsPerHour="17.19" departLane="best" departPos="random" departSpeed="0" from="-55029244#0" to="28231434"/>
  <flow id="car_-55029244#0_23241821#0_00082ea2" type="car" begin="0" end="3600" vehsPerHour="13.56" departLane="best" departPos="random" departSpeed="0" from="-55029244#0" to="23241821#0"/>
  <flow id="motorcycle_-55029244#0_198876042#0_00082ea2" type="motorcycle" begin="0" end="3600" vehsPerHour="83.00" departLane="best" departPos="random" departSpeed="0" from="-55029244#0" to="198876042#0"/>
  <flow id="motorcycle_-55029244#0_193253427#0_00082ea2" type="motorcycle" begin="0" end="3600" vehsPerHour="68.49" departLane="best" departPos="random" departSpeed="0" from="-55029244#0" to="193253427#0"/>
  <flow id="motorcycle_-55029244#0_198876043#2_00082ea2" type="motorcycle" begin="0" end="3600" vehsPerHour="62.03" departLane="best" departPos="random" departSpeed="0" from="-55029244#0" to="198876043#2"/>
  <flow id="motorcycle_-55029244#0_28231434_00082ea2" type="motorcycle" begin="0" end="3600" vehsPerHour="53.61" departLane="best" departPos="random" departSpeed="0" from="-55029244#0" to="28231434"/>
  <flow id="motorcycle_-55029244#0_23241821#0_00082ea2" type="motorcycle" begin="0" end="3600" vehsPerHour="45.47" departLane="best" departPos="random" departSpeed="0" from="-55029244#0" to="23241821#0"/>
  <flow id="car_34241530#0_198876042#0_00082ea2" type="car" begin="0" end="3600" vehsPerHour="27.56" departLane="best" departPos="random" departSpeed="0" from="34241530#0" to="198876042#0"/>
  <flow id="car_34241530#0_193253427#0_00082ea2" type="car" begin="0" end="3600" vehsPerHour="23.55" departLane="best" departPos="random" departSpeed="0" from="34241530#0" to="193253427#0"/>
  <flow id="car_34241530#0_198876043#2_00082ea2" type="car" begin="0" end="3600" vehsPerHour="19.24" departLane="best" departPos="random" departSpeed="0" from="34241530#0" to="198876043#2"/>
  <flow id="car_34241530#0_28231434_00082ea2" type="car" begin="0" end="3600" vehsPerHour="17.36" departLane="best" departPos="random" departSpeed="0" from="34241530#0" to="28231434"/>
  <flow id="car_34241530#0_23241821#0_00082ea2" type="car" begin="0" end="3600" vehsPerHour="12.97" departLane="best" departPos="random" departSpeed="0" from="34241530#0" to="23241821#0"/>
  <flow id="motorcycle_34241530#0_198876042#0_00082ea2" type="motorcycle" begin="0" end="3600" vehsPerHour="82.69" departLane="best" departPos="random" departSpeed="0" from="34241530#0" to="198876042#0"/>
  <flow id="motorcycle_34241530#0_193253427#0_00082ea2" type="motorcycle" begin="0" end="3600" vehsPerHour="66.42" departLane="best" departPos="random" departSpeed="0" from="34241530#0" to="193253427#0"/>
  <flow id="motorcycle_34241530#0_198876043#2_00082ea2" type="motorcycle" begin="0" end="3600" vehsPerHour="61.57" departLane="best" departPos="random" departSpeed="0" from="34241530#0" to="198876043#2"/>
  <flow id="motorcycle_34241530#0_28231434_00082ea2" type="motorcycle" begin="0" end="3600" vehsPerHour="53.32" departLane="best" departPos="random" departSpeed="0" from="34241530#0" to="28231434"/>
  <flow id="motorcycle_34241530#0_23241821#0_00082ea2" type="motorcycle" begin="0" end="3600" vehsPerHour="46.59" departLane="best" departPos="random" departSpeed="0" from="34241530#0" to="23241821#0"/>
  <flow id="truck_34241530#0_198876042#0_00082ea2" type="truck" begin="0" end="3600" vehsPerHour="11.25" departLane="best" departPos="random" departSpeed="0" from="34241530#0" to="198876042#0"/>
</routes>
