<routes>
<vType id="car" vClass="passenger" accel="2.6" decel="4.5" sigma="0.5" length="5.0" maxSpeed="13.9"/>
<vType id="motorcycle" vClass="motorcycle" accel="3.0" decel="5.0" sigma="0.5" length="2.0" maxSpeed="14.0"/>
<vType id="truck" vClass="truck" accel="1.2" decel="3.5" sigma="0.5" length="12.0" maxSpeed="10.0"/>

  <flow id="car_222682222#1_193253427#0_00044a55" type="car" begin="0" end="3600" vehsPerHour="58.83" departLane="best" departPos="random" departSpeed="0" from="222682222#1" to="193253427#0"/>
  <flow id="car_222682222#1_198876043#0_00044a55" type="car" begin="0" end="3600" vehsPerHour="51.40" departLane="best" departPos="random" departSpeed="0" from="222682222#1" to="198876043#0"/>
  <flow id="car_222682222#1_28231434_00044a55" type="car" begin="0" end="3600" vehsPerHour="49.18" departLane="best" departPos="random" departSpeed="0" from="222682222#1" to="28231434"/>
  <flow id="car_222682222#1_23241821#0_00044a55" type="car" begin="0" end="3600" vehsPerHour="39.59" departLane="best" departPos="random" departSpeed="0" from="222682222#1" to="23241821#0"/>
  <flow id="car_222682222#1_198876042#0_00044a55" type="car" begin="0" end="3600" vehsPerHour="33.96" departLane="best" departPos="random" departSpeed="0" from="222682222#1" to="198876042#0"/>
  <flow id="motorcycle_222682222#1_193253427#0_00044a55" type="motorcycle" begin="0" end="3600" vehsPerHour="170.73" departLane="best" departPos="random" departSpeed="0" from="222682222#1" to="193253427#0"/>
  <flow id="motorcycle_222682222#1_198876043#0_00044a55" type="motorcycle" begin="0" end="3600" vehsPerHour="156.50" departLane="best" departPos="random" departSpeed="0" from="222682222#1" to="198876043#0"/>
  <flow id="motorcycle_222682222#1_28231434_00044a55" type="motorcycle" begin="0" end="3600" vehsPerHour="143.67" departLane="best" departPos="random" departSpeed="0" from="222682222#1" to="28231434"/>
  <flow id="motorcycle_222682222#1_23241821#0_00044a55" type="motorcycle" begin="0" end="3600" vehsPerHour="111.52" departLane="best" departPos="random" departSpeed="0" from="222682222#1" to="23241821#0"/>
  <flow id="motorcycle_222682222#1_198876042#0_00044a55" type="motorcycle" begin="0" end="3600" vehsPerHour="96.83" departLane="best" departPos="random" departSpeed="0" from="222682222#1" to="198876042#0"/>
  <flow id="car_193253433#2_198876043#0_00044a55" type="car" begin="0" end="3600" vehsPerHour="40.66" departLane="best" departPos="random" departSpeed="0" from="193253433#2" to="198876043#0"/>
  <flow id="car_193253433#2_28231434_00044a55" type="car" begin="0" end="3600" vehsPerHour="33.49" departLane="best" departPos="random" departSpeed="0" from="193253433#2" to="28231434"/>
  <flow id="car_193253433#2_23241821#0_00044a55" type="car" begin="0" end="3600" vehsPerHour="34.04" departLane="best" departPos="random" departSpeed="0" from="193253433#2" to="23241821#0"/>
  <flow id="car_193253433#2_198876042#0_00044a55" type="car" begin="0" end="3600" vehsPerHour="26.92" departLane="best" departPos="random" departSpeed="0" from="193253433#2" to="198876042#0"/>
  <flow id="car_193253433#2_193253427#0_00044a55" type="car" begin="0" end="3600" vehsPerHour="24.54" departLane="best" departPos="random" departSpeed="0" from="193253433#2" to="193253427#0"/>
  <flow id="motorcycle_193253433#2_198876043#0_00044a55" type="motorcycle" begin="0" end="3600" vehsPerHour="114.07" departLane="best" departPos="random" departSpeed="0" from="193253433#2" to="198876043#0"/>
  <flow id="motorcycle_193253433#2_28231434_00044a55" type="motorcycle" begin="0" end="3600" vehsPerHour="103.49" departLane="best" departPos="random" departSpeed="0" from="193253433#2" to="28231434"/>
  <flow id="motorcycle_193253433#2_23241821#0_00044a55" type="motorcycle" begin="0" end="3600" vehsPerHour="96.70" departLane="best" departPos="random" departSpeed="0" from="193253433#2" to="23241821#0"/>
  <flow id="motorcycle_193253433#2_198876042#0_00044a55" type="motorcycle" begin="0" end="3600" vehsPerHour="81.53" departLane="best" departPos="random" departSpeed="0" from="193253433#2" to="198876042#0"/>
  <flow id="motorcycle_193253433#2_193253427#0_00044a55" type="motorcycle" begin="0" end="3600" vehsPerHour="64.65" departLane="best" departPos="random" departSpeed="0" from="193253433#2" to="193253427#0"/>
  <flow id="car_198876045#1_28231434_00044a55" type="car" begin="0" end="3600" vehsPerHour="34.73" departLane="best" departPos="random" departSpeed="0" from="198876045#1" to="28231434"/>
  <flow id="car_198876045#1_23241821#0_00044a55" type="car" begin="0" end="3600" vehsPerHour="29.07" departLane="best" departPos="random" departSpeed="0" from="198876045#1" to="23241821#0"/>
  <flow id="car_198876045#1_198876042#0_00044a55" type="car" begin="0" end="3600" vehsPerHour="25.96" departLane="best" departPos="random" departSpeed="0" from="198876045#1" to="198876042#0"/>
  <flow id="car_198876045#1_193253427#0_00044a55" type="car" begin="0" end="3600" vehsPerHour="22.95" departLane="best" departPos="random" departSpeed="0" from="198876045#1" to="193253427#0"/>
  <flow id="car_198876045#1_198876043#2_00044a55" type="car" begin="0" end="3600" vehsPerHour="20.99" departLane="best" departPos="random" departSpeed="0" from="198876045#1" to="198876043#2"/>
  <flow id="motorcycle_198876045#1_28231434_00044a55" type="motorcycle" begin="0" end="3600" vehsPerHour="105.58" departLane="best" departPos="random" departSpeed="0" from="198876045#1" to="28231434"/>
  <flow id="motorcycle_198876045#1_23241821#0_00044a55" type="motorcycle" begin="0" end="3600" vehsPerHour="85.47" departLane="best" departPos="random" departSpeed="0" from="198876045#1" to="23241821#0"/>
  <flow id="motorcycle_198876045#1_198876042#0_00044a55" type="motorcycle" begin="0" end="3600" vehsPerHour="78.46" departLane="best" departPos="random" departSpeed="0" from="198876045#1" to="198876042#0"/>
  <flow id="motorcycle_198876045#1_193253427#0_00044a55" type="motorcycle" begin="0" end="3600" vehsPerHour="75.40" departLane="best" departPos="random" departSpeed="0" from="198876045#1" to="193253427#0"/>
  <flow id="motorcycle_198876045#1_198876043#2_00044a55" type="motorcycle" begin="0" end="3600" vehsPerHour="66.52" departLane="best" departPos="random" departSpeed="0" from="198876045#1" to="198876043#2"/>
  <flow id="car_-28231434_23241821#0_00044a55" type="car" begin="0" end="3600" vehsPerHour="24.02" departLane="best" departPos="random" departSpeed="0" from="-28231434" to="23241821#0"/>
  <flow id="car_-28231434_198876042#0_00044a55" type="car" begin="0" end="3600" vehsPerHour="20.71" departLane="best" departPos="random" departSpeed="0" from="-28231434" to="198876042#0"/>
  <flow id="car_-28231434_193253427#0_00044a55" type="car" begin="0" end="3600" vehsPerHour="16.21" departLane="best" departPos="random" departSpeed="0" from="-28231434" to="193253427#0"/>
  <flow id="car_-28231434_198876043#2_00044a55" type="car" begin="0" end="3600" vehsPerHour="16.06" departLane="best" departPos="random" departSpeed="0" from="-28231434" to="198876043#2"/>
  <flow id="car_-28231434_28231434_00044a55" type="car" begin="0" end="3600" vehsPerHour="13.32" departLane="best" departPos="random" departSpeed="0" from="-28231434" to="28231434"/>
  <flow id="motorcycle_-28231434_23241821#0_00044a55" type="motorcycle" begin="0" end="3600" vehsPerHour="68.91" departLane="best" departPos="random" departSpeed="0" from="-28231434" to="23241821#0"/>
  <flow id="motorcycle_-28231434_198876042#0_00044a55" type="motorcycle" begin="0" end="3600" vehsPerHour="60.52" departLane="best" departPos="random" departSpeed="0" from="-28231434" to="198876042#0"/>
  <flow id="motorcycle_-28231434_193253427#0_00044a55" type="motorcycle" begin="0" end="3600" vehsPerHour="55.00" departLane="best" departPos="random" departSpeed="0" from="-28231434" to="193253427#0"/>
  <flow id="motorcycle_-28231434_198876043#2_00044a55" type="motorcycle" begin="0" end="3600" vehsPerHour="46.72" departLane="best" departPos="random" departSpeed="0" from="-28231434" to="198876043#2"/>
  <flow id="motorcycle_-28231434_28231434_00044a55" type="motorcycle" begin="0" end="3600" vehsPerHour="38.62" departLane="best" departPos="random" departSpeed="0" from="-28231434" to="28231434"/>
  <flow id="car_-55029244#0_198876042#0_00044a55" type="car" begin="0" end="3600" vehsPerHour="26.54" departLane="best" departPos="random" departSpeed="0" from="-55029244#0" to="198876042#0"/>
  <flow id="car_-55029244#0_193253427#0_00044a55" type="car" begin="0" end="3600" vehsPerHour="24.08" departLane="best" departPos="random" departSpeed="0" from="-55029244#0" to="193253427#0"/>
  <flow id="car_-55029244#0_198876043#2_00044a55" type="car" begin="0" end="3600" vehsPerHour="20.95" departLane="best" departPos="random" departSpeed="0" from="-55029244#0" to="198876043#2"/>
  <flow id="car_-55029244#0_28231434_00044a55" type="car" begin="0" end="3600" vehsPerHour="17.58" departLane="best" departPos="random" departSpeed="0" from="-55029244#0" to="28231434"/>
  <flow id="car_-55029244#0_23241821#0_00044a55" type="car" begin="0" end="3600" vehsPerHour="13.87" departLane="best" departPos="random" departSpeed="0" from="-55029244#0" to="23241821#0"/>
  <flow id="motorcycle_-55029244#0_198876042#0_00044a55" type="motorcycle" begin="0" end="3600" vehsPerHour="82.02" departLane="best" departPos="random" departSpeed="0" from="-55029244#0" to="198876042#0"/>
  <flow id="motorcycle_-55029244#0_193253427#0_00044a55" type="motorcycle" begin="0" end="3600" vehsPerHour="69.03" departLane="best" departPos="random" departSpeed="0" from="-55029244#0" to="193253427#0"/>
  <flow id="motorcycle_-55029244#0_198876043#2_00044a55" type="motorcycle" begin="0" end="3600" vehsPerHour="59.45" departLane="best" departPos="random" departSpeed="0" from="-55029244#0" to="198876043#2"/>
  <flow id="motorcycle_-55029244#0_28231434_00044a55" type="motorcycle" begin="0" end="3600" vehsPerHour="55.23" departLane="best" departPos="random" departSpeed="0" from="-55029244#0" to="28231434"/>
  <flow id="motorcycle_-55029244#0_23241821#0_00044a55" type="motorcycle" begin="0" end="3600" vehsPerHour="47.65" departLane="best" departPos="random" departSpeed="0" from="-55029244#0" to="23241821#0"/>
  <flow id="car_34241530#0_198876042#0_00044a55" type="car" begin="0" end="3600" vehsPerHour="26.85" departLane="best" departPos="random" departSpeed="0" from="34241530#0" to="198876042#0"/>
  <flow id="car_34241530#0_193253427#0_00044a55" type="car" begin="0" end="3600" vehsPerHour="24.22" departLane="best" departPos="random" departSpeed="0" from="34241530#0" to="193253427#0"/>
  <flow id="car_34241530#0_198876043#2_00044a55" type="car" begin="0" end="3600" vehsPerHour="19.88" departLane="best" departPos="random" departSpeed="0" from="34241530#0" to="198876043#2"/>
  <flow id="car_34241530#0_28231434_00044a55" type="car" begin="0" end="3600" vehsPerHour="16.16" departLane="best" departPos="random" departSpeed="0" from="34241530#0" to="28231434"/>
  <flow id="car_34241530#0_23241821#0_00044a55" type="car" begin="0" end="3600" vehsPerHour="13.14" departLane="best" departPos="random" departSpeed="0" from="34241530#0" to="23241821#0"/>
  <flow id="motorcycle_34241530#0_198876042#0_00044a55" type="motorcycle" begin="0" end="3600" vehsPerHour="82.87" departLane="best" departPos="random" departSpeed="0" from="34241530#0" to="198876042#0"/>
  <flow id="motorcycle_34241530#0_193253427#0_00044a55" type="motorcycle" begin="0" end="3600" vehsPerHour="66.88" departLane="best" departPos="random" departSpeed="0" from="34241530#0" to="193253427#0"/>
  <flow id="motorcycle_34241530#0_198876043#2_00044a55" type="motorcycle" begin="0" end="3600" vehsPerHour="62.18" departLane="best" departPos="random" departSpeed="0" from="34241530#0" to="198876043#2"/>
  <flow id="motorcycle_34241530#0_28231434_00044a55" type="motorcycle" begin="0" end="3600" vehsPerHour="56.23" departLane="best" departPos="random" departSpeed="0" from="34241530#0" to="28231434"/>
  <flow id="motorcycle_34241530#0_23241821#0_00044a55" type="motorcycle" begin="0" end="3600" vehsPerHour="48.53" departLane="best" departPos="random" departSpeed="0" from="34241530#0" to="23241821#0"/>
  <flow id="truck_34241530#0_198876042#0_00044a55" type="truck" begin="0" end="3600" vehsPerHour="11.92" departLane="best" departPos="random" departSpeed="0" from="34241530#0" to="198876042#0"/>
</routes>
