<routes>
<vType id="car" vClass="passenger" accel="2.6" decel="4.5" sigma="0.5" length="5.0" maxSpeed="13.9"/>
<vType id="motorcycle" vClass="motorcycle" accel="3.0" decel="5.0" sigma="0.5" length="2.0" maxSpeed="14.0"/>
<vType id="truck" vClass="truck" accel="1.2" decel="3.5" sigma="0.5" length="12.0" maxSpeed="10.0"/>

  <flow id="car_222682222#1_193253427#0_00046e05" type="car" begin="0" end="3600" vehsPerHour="60.29" departLane="best" departPos="random" departSpeed="0" from="222682222#1" to="193253427#0"/>
  <flow id="car_222682222#1_198876043#0_00046e05" type="car" begin="0" end="3600" vehsPerHour="48.71" departLane="best" departPos="random" departSpeed="0" from="222682222#1" to="198876043#0"/>
  <flow id="car_222682222#1_28231434_00046e05" type="car" begin="0" end="3600" vehsPerHour="49.93" departLane="best" departPos="random" departSpeed="0" from="222682222#1" to="28231434"/>
  <flow id="car_222682222#1_23241821#0_00046e05" type="car" begin="0" end="3600" vehsPerHour="39.56" departLane="best" departPos="random" departSpeed="0" from="222682222#1" to="23241821#0"/>
  <flow id="car_222682222#1_198876042#0_00046e05" type="car" begin="0" end="3600" vehsPerHour="32.39" departLane="best" departPos="random" departSpeed="0" from="222682222#1" to="198876042#0"/>
  <flow id="motorcycle_222682222#1_193253427#0_00046e05" type="motorcycle" begin="0" end="3600" vehsPerHour="168.04" departLane="best" departPos="random" departSpeed="0" from="222682222#1" to="193253427#0"/>
  <flow id="motorcycle_222682222#1_198876043#0_00046e05" type="motorcycle" begin="0" end="3600" vehsPerHour="153.79" departLane="best" departPos="random" departSpeed="0" from="222682222#1" to="198876043#0"/>
  <flow id="motorcycle_222682222#1_28231434_00046e05" type="motorcycle" begin="0" end="3600" vehsPerHour="138.88" departLane="best" departPos="random" departSpeed="0" from="222682222#1" to="28231434"/>
  <flow id="motorcycle_222682222#1_23241821#0_00046e05" type="motorcycle" begin="0" end="3600" vehsPerHour="112.54" departLane="best" departPos="random" departSpeed="0" from="222682222#1" to="23241821#0"/>
  <flow id="motorcycle_222682222#1_198876042#0_00046e05" type="motorcycle" begin="0" end="3600" vehsPerHour="101.93" departLane="best" departPos="random" departSpeed="0" from="222682222#1" to="198876042#0"/>
  <flow id="car_193253433#2_198876043#0_00046e05" type="car" begin="0" end="3600" vehsPerHour="40.60" departLane="best" departPos="random" departSpeed="0" from="193253433#2" to="198876043#0"/>
  <flow id="car_193253433#2_28231434_00046e05" type="car" begin="0" end="3600" vehsPerHour="34.69" departLane="best" departPos="random" departSpeed="0" from="193253433#2" to="28231434"/>
  <flow id="car_193253433#2_23241821#0_00046e05" type="car" begin="0" end="3600" vehsPerHour="32.75" departLane="best" departPos="random" departSpeed="0" from="193253433#2" to="23241821#0"/>
  <flow id="car_193253433#2_198876042#0_00046e05" type="car" begin="0" end="3600" vehsPerHour="27.61" departLane="best" departPos="random" departSpeed="0" from="193253433#2" to="198876042#0"/>
  <flow id="car_193253433#2_193253427#0_00046e05" type="car" begin="0" end="3600" vehsPerHour="22.93" departLane="best" departPos="random" departSpeed="0" from="193253433#2" to="193253427#0"/>
  <flow id="motorcycle_193253433#2_198876043#0_00046e05" type="motorcycle" begin="0" end="3600" vehsPerHour="112.51" departLane="best" departPos="random" departSpeed="0" from="193253433#2" to="198876043#0"/>
  <flow id="motorcycle_193253433#2_28231434_00046e05" type="motorcycle" begin="0" end="3600" vehsPerHour="98.16" departLane="best" departPos="random" departSpeed="0" from="193253433#2" to="28231434"/>
  <flow id="motorcycle_193253433#2_23241821#0_00046e05" type="motorcycle" begin="0" end="3600" vehsPerHour="96.57" departLane="best" departPos="random" departSpeed="0" from="193253433#2" to="23241821#0"/>
  <flow id="motorcycle_193253433#2_198876042#0_00046e05" type="motorcycle" begin="0" end="3600" vehsPerHour="83.96" departLane="best" departPos="random" departSpeed="0" from="193253433#2" to="198876042#0"/>
  <flow id="motorcycle_193253433#2_193253427#0_00046e05" type="motorcycle" begin="0" end="3600" vehsPerHour="64.72" departLane="best" departPos="random" departSpeed="0" from="193253433#2" to="193253427#0"/>
  <flow id="car_198876045#1_28231434_00046e05" type="car" begin="0" end="3600" vehsPerHour="34.70" departLane="best" departPos="random" departSpeed="0" from="198876045#1" to="28231434"/>
  <flow id="car_198876045#1_23241821#0_00046e05" type="car" begin="0" end="3600" vehsPerHour="29.81" departLane="best" departPos="random" departSpeed="0" from="198876045#1" to="23241821#0"/>
  <flow id="car_198876045#1_198876042#0_00046e05" type="car" begin="0" end="3600" vehsPerHour="26.70" departLane="best" departPos="random" departSpeed="0" from="198876045#1" to="198876042#0"/>
  <flow id="car_198876045#1_193253427#0_00046e05" type="car" begin="0" end="3600" vehsPerHour="23.64" departLane="best" departPos="random" departSpeed="0" from="198876045#1" to="193253427#0"/>
  <flow id="car_198876045#1_198876043#2_00046e05" type="car" begin="0" end="3600" vehsPerHour="19.65" departLane="best" departPos="random" departSpeed="0" from="198876045#1" to="198876043#2"/>
  <flow id="motorcycle_198876045#1_28231434_00046e05" type="motorcycle" begin="0" end="3600" vehsPerHour="99.82" departLane="best" departPos="random" departSpeed="0" from="198876045#1" to="28231434"/>
  <flow id="motorcycle_198876045#1_23241821#0_00046e05" type="motorcycle" begin="0" end="3600" vehsPerHour="84.72" departLane="best" departPos="random" departSpeed="0" from="198876045#1" to="23241821#0"/>
  <flow id="motorcycle_198876045#1_198876042#0_00046e05" type="motorcycle" begin="0" end="3600" vehsPerHour="78.13" departLane="best" departPos="random" departSpeed="0" from="198876045#1" to="198876042#0"/>
  <flow id="motorcycle_198876045#1_193253427#0_00046e05" type="motorcycle" begin="0" end="3600" vehsPerHour="72.43" departLane="best" departPos="random" departSpeed="0" from="198876045#1" to="193253427#0"/>
  <flow id="motorcycle_198876045#1_198876043#2_00046e05" type="motorcycle" begin="0" end="3600" vehsPerHour="65.79" departLane="best" departPos="random" departSpeed="0" from="198876045#1" to="198876043#2"/>
  <flow id="car_-28231434_23241821#0_00046e05" type="car" begin="0" end="3600" vehsPerHour="23.32" departLane="best" departPos="random" departSpeed="0" from="-28231434" to="23241821#0"/>
  <flow id="car_-28231434_198876042#0_00046e05" type="car" begin="0" end="3600" vehsPerHour="20.33" departLane="best" departPos="random" departSpeed="0" from="-28231434" to="198876042#0"/>
  <flow id="car_-28231434_193253427#0_00046e05" type="car" begin="0" end="3600" vehsPerHour="16.39" departLane="best" departPos="random" departSpeed="0" from="-28231434" to="193253427#0"/>
  <flow id="car_-28231434_198876043#2_00046e05" type="car" begin="0" end="3600" vehsPerHour="16.23" departLane="best" departPos="random" departSpeed="0" from="-28231434" to="198876043#2"/>
  <flow id="car_-28231434_28231434_00046e05" type="car" begin="0" end="3600" vehsPerHour="12.92" departLane="best" departPos="random" departSpeed="0" from="-28231434" to="28231434"/>
  <flow id="motorcycle_-28231434_23241821#0_00046e05" type="motorcycle" begin="0" end="3600" vehsPerHour="68.08" departLane="best" departPos="random" departSpeed="0" from="-28231434" to="23241821#0"/>
  <flow id="motorcycle_-28231434_198876042#0_00046e05" type="motorcycle" begin="0" end="3600" vehsPerHour="60.39" departLane="best" departPos="random" departSpeed="0" from="-28231434" to="198876042#0"/>
  <flow id="motorcycle_-28231434_193253427#0_00046e05" type="motorcycle" begin="0" end="3600" vehsPerHour="51.73" departLane="best" departPos="random" departSpeed="0" from="-28231434" to="193253427#0"/>
  <flow id="motorcycle_-28231434_198876043#2_00046e05" type="motorcycle" begin="0" end="3600" vehsPerHour="45.03" departLane="best" departPos="random" departSpeed="0" from="-28231434" to="198876043#2"/>
  <flow id="motorcycle_-28231434_28231434_00046e05" type="motorcycle" begin="0" end="3600" vehsPerHour="39.41" departLane="best" departPos="random" departSpeed="0" from="-28231434" to="28231434"/>
  <flow id="car_-55029244#0_198876042#0_00046e05" type="car" begin="0" end="3600" vehsPerHour="27.89" departLane="best" departPos="random" departSpeed="0" from="-55029244#0" to="198876042#0"/>
  <flow id="car_-55029244#0_193253427#0_00046e05" type="car" begin="0" end="3600" vehsPerHour="24.14" departLane="best" departPos="random" departSpeed="0" from="-55029244#0" to="193253427#0"/>
  <flow id="car_-55029244#0_198876043#2_00046e05" type="car" begin="0" end="3600" vehsPerHour="20.67" departLane="best" departPos="random" departSpeed="0" from="-55029244#0" to="198876043#2"/>
  <flow id="car_-55029244#0_28231434_00046e05" type="car" begin="0" end="3600" vehsPerHour="17.35" departLane="best" departPos="random" departSpeed="0" from="-55029244#0" to="28231434"/>
  <flow id="car_-55029244#0_23241821#0_00046e05" type="car" begin="0" end="3600" vehsPerHour="13.48" departLane="best" departPos="random" departSpeed="0" from="-55029244#0" to="23241821#0"/>
  <flow id="motorcycle_-55029244#0_198876042#0_00046e05" type="motorcycle" begin="0" end="3600" vehsPerHour="77.48" departLane="best" departPos="random" departSpeed="0" from="-55029244#0" to="198876042#0"/>
  <flow id="motorcycle_-55029244#0_193253427#0_00046e05" type="motorcycle" begin="0" end="3600" vehsPerHour="65.34" departLane="best" departPos="random" departSpeed="0" from="-55029244#0" to="193253427#0"/>
  <flow id="motorcycle_-55029244#0_198876043#2_00046e05" type="motorcycle" begin="0" end="3600" vehsPerHour="59.33" departLane="best" departPos="random" departSpeed="0" from="-55029244#0" to="198876043#2"/>
  <flow id="motorcycle_-55029244#0_28231434_00046e05" type="motorcycle" begin="0" end="3600" vehsPerHour="55.35" departLane="best" departPos="random" departSpeed="0" from="-55029244#0" to="28231434"/>
  <flow id="motorcycle_-55029244#0_23241821#0_00046e05" type="motorcycle" begin="0" end="3600" vehsPerHour="47.91" departLane="best" departPos="random" departSpeed="0" from="-55029244#0" to="23241821#0"/>
  <flow id="car_34241530#0_198876042#0_00046e05" type="car" begin="0" end="3600" vehsPerHour="26.66" departLane="best" departPos="random" departSpeed="0" from="34241530#0" to="198876042#0"/>
  <flow id="car_34241530#0_193253427#0_00046e05" type="car" begin="0" end="3600" vehsPerHour="22.96" departLane="best" departPos="random" departSpeed="0" from="34241530#0" to="193253427#0"/>
  <flow id="car_34241530#0_198876043#2_00046e05" type="car" begin="0" end="3600" vehsPerHour="19.60" departLane="best" departPos="random" departSpeed="0" from="34241530#0" to="198876043#2"/>
  <flow id="car_34241530#0_28231434_00046e05" type="car" begin="0" end="3600" vehsPerHour="17.11" departLane="best" departPos="random" departSpeed="0" from="34241530#0" to="28231434"/>
  <flow id="car_34241530#0_23241821#0_00046e05" type="car" begin="0" end="3600" vehsPerHour="13.80" departLane="best" departPos="random" departSpeed="0" from="34241530#0" to="23241821#0"/>
  <flow id="motorcycle_34241530#0_198876042#0_00046e05" type="motorcycle" begin="0" end="3600" vehsPerHour="76.87" departLane="best" departPos="random" departSpeed="0" from="34241530#0" to="198876042#0"/>
  <flow id="motorcycle_34241530#0_193253427#0_00046e05" type="motorcycle" begin="0" end="3600" vehsPerHour="67.54" departLane="best" departPos="random" departSpeed="0" from="34241530#0" to="193253427#0"/>
  <flow id="motorcycle_34241530#0_198876043#2_00046e05" type="motorcycle" begin="0" end="3600" vehsPerHour="59.44" departLane="best" departPos="random" departSpeed="0" from="34241530#0" to="198876043#2"/>
  <flow id="motorcycle_34241530#0_28231434_00046e05" type="motorcycle" begin="0" end="3600" vehsPerHour="51.68" departLane="best" departPos="random" departSpeed="0" from="34241530#0" to="28231434"/>
  <flow id="motorcycle_34241530#0_23241821#0_00046e05" type="motorcycle" begin="0" end="3600" vehsPerHour="44.91" departLane="best" departPos="random" departSpeed="0" from="34241530#0" to="23241821#0"/>
  <flow id="truck_34241530#0_198876042#0_00046e05" type="truck" begin="0" end="3600" vehsPerHour="11.34" departLane="best" departPos="random" departSpeed="0" from="34241530#0" to="198876042#0"/>
</routes>
