<routes>
<vType id="car" vClass="passenger" accel="2.6" decel="4.5" sigma="0.5" length="5.0" maxSpeed="13.9"/>
<vType id="motorcycle" vClass="motorcycle" accel="3.0" decel="5.0" sigma="0.5" length="2.0" maxSpeed="14.0"/>
<vType id="truck" vClass="truck" accel="1.2" decel="3.5" sigma="0.5" length="12.0" maxSpeed="10.0"/>

  <flow id="car_222682222#1_193253427#0_000d2e44" type="car" begin="0" end="3600" vehsPerHour="61.54" departLane="best" departPos="random" departSpeed="0" from="222682222#1" to="193253427#0"/>
  <flow id="car_222682222#1_198876043#0_000d2e44" type="car" begin="0" end="3600" vehsPerHour="51.39" departLane="best" departPos="random" departSpeed="0" from="222682222#1" to="198876043#0"/>
  <flow id="car_222682222#1_28231434_000d2e44" type="car" begin="0" end="3600" vehsPerHour="50.67" departLane="best" departPos="random" departSpeed="0" from="222682222#1" to="28231434"/>
  <flow id="car_222682222#1_23241821#0_000d2e44" type="car" begin="0" end="3600" vehsPerHour="41.82" departLane="best" departPos="random" departSpeed="0" from="222682222#1" to="23241821#0"/>
  <flow id="car_222682222#1_198876042#0_000d2e44" type="car" begin="0" end="3600" vehsPerHour="34.87" departLane="best" departPos="random" departSpeed="0" from="222682222#1" to="198876042#0"/>
  <flow id="motorcycle_222682222#1_193253427#0_000d2e44" type="motorcycle" begin="0" end="3600" vehsPerHour="182.59" departLane="best" departPos="random" departSpeed="0" from="222682222#1" to="193253427#0"/>
  <flow id="motorcycle_222682222#1_198876043#0_000d2e44" type="motorcycle" begin="0" end="3600" vehsPerHour="156.30" departLane="best" departPos="random" departSpeed="0" from="222682222#1" to="198876043#0"/>
  <flow id="motorcycle_222682222#1_28231434_000d2e44" type="motorcycle" begin="0" end="3600" vehsPerHour="135.07" departLane="best" departPos="random" departSpeed="0" from="222682222#1" to="28231434"/>
  <flow id="motorcycle_222682222#1_23241821#0_000d2e44" type="motorcycle" begin="0" end="3600" vehsPerHour="117.90" departLane="best" departPos="random" departSpeed="0" from="222682222#1" to="23241821#0"/>
  <flow id="motorcycle_222682222#1_198876042#0_000d2e44" type="motorcycle" begin="0" end="3600" vehsPerHour="96.48" departLane="best" departPos="random" departSpeed="0" from="222682222#1" to="198876042#0"/>
  <flow id="car_193253433#2_198876043#0_000d2e44" type="car" begin="0" end="3600" vehsPerHour="41.62" departLane="best" departPos="random" departSpeed="0" from="193253433#2" to="198876043#0"/>
  <flow id="car_193253433#2_28231434_000d2e44" type="car" begin="0" end="3600" vehsPerHour="34.38" departLane="best" departPos="random" departSpeed="0" from="193253433#2" to="28231434"/>
  <flow id="car_193253433#2_23241821#0_000d2e44" type="car" begin="0" end="3600" vehsPerHour="34.49" departLane="best" departPos="random" departSpeed="0" from="193253433#2" to="23241821#0"/>
  <flow id="car_193253433#2_198876042#0_000d2e44" type="car" begin="0" end="3600" vehsPerHour="26.34" departLane="best" departPos="random" departSpeed="0" from="193253433#2" to="198876042#0"/>
  <flow id="car_193253433#2_193253427#0_000d2e44" type="car" begin="0" end="3600" vehsPerHour="24.05" departLane="best" departPos="random" departSpeed="0" from="193253433#2" to="193253427#0"/>
  <flow id="motorcycle_193253433#2_198876043#0_000d2e44" type="motorcycle" begin="0" end="3600" vehsPerHour="109.27" departLane="best" departPos="random" departSpeed="0" from="193253433#2" to="198876043#0"/>
  <flow id="motorcycle_193253433#2_28231434_000d2e44" type="motorcycle" begin="0" end="3600" vehsPerHour="104.29" departLane="best" departPos="random" departSpeed="0" from="193253433#2" to="28231434"/>
  <flow id="motorcycle_193253433#2_23241821#0_000d2e44" type="motorcycle" begin="0" end="3600" vehsPerHour="97.51" departLane="best" departPos="random" departSpeed="0" from="193253433#2" to="23241821#0"/>
  <flow id="motorcycle_193253433#2_198876042#0_000d2e44" type="motorcycle" begin="0" end="3600" vehsPerHour="83.13" departLane="best" departPos="random" departSpeed="0" from="193253433#2" to="198876042#0"/>
  <flow id="motorcycle_193253433#2_193253427#0_000d2e44" type="motorcycle" begin="0" end="3600" vehsPerHour="64.17" departLane="best" departPos="random" departSpeed="0" from="193253433#2" to="193253427#0"/>
  <flow id="car_198876045#1_28231434_000d2e44" type="car" begin="0" end="3600" vehsPerHour="34.10" departLane="best" departPos="random" departSpeed="0" from="198876045#1" to="28231434"/>
  <flow id="car_198876045#1_23241821#0_000d2e44" type="car" begin="0" end="3600" vehsPerHour="30.68" departLane="best" departPos="random" departSpeed="0" from="198876045#1" to="23241821#0"/>
  <flow id="car_198876045#1_198876042#0_000d2e44" type="car" begin="0" end="3600" vehsPerHour="26.44" departLane="best" departPos="random" departSpeed="0" from="198876045#1" to="198876042#0"/>
  <flow id="car_198876045#1_193253427#0_000d2e44" type="car" begin="0" end="3600" vehsPerHour="24.64" departLane="best" departPos="random" departSpeed="0" from="198876045#1" to="193253427#0"/>
  <flow id="car_198876045#1_198876043#2_000d2e44" type="car" begin="0" end="3600" vehsPerHour="20.55" departLane="best" departPos="random" departSpeed="0" from="198876045#1" to="198876043#2"/>
  <flow id="motorcycle_198876045#1_28231434_000d2e44" type="motorcycle" begin="0" end="3600" vehsPerHour="99.02" departLane="best" departPos="random" departSpeed="0" from="198876045#1" to="28231434"/>
  <flow id="motorcycle_198876045#1_23241821#0_000d2e44" type="motorcycle" begin="0" end="3600" vehsPerHour="87.18" departLane="best" departPos="random" departSpeed="0" from="198876045#1" to="23241821#0"/>
  <flow id="motorcycle_198876045#1_198876042#0_000d2e44" type="motorcycle" begin="0" end="3600" vehsPerHour="80.75" departLane="best" departPos="random" departSpeed="0" from="198876045#1" to="198876042#0"/>
  <flow id="motorcycle_198876045#1_193253427#0_000d2e44" type="motorcycle" begin="0" end="3600" vehsPerHour="76.79" departLane="best" departPos="random" departSpeed="0" from="198876045#1" to="193253427#0"/>
  <flow id="motorcycle_198876045#1_198876043#2_000d2e44" type="motorcycle" begin="0" end="3600" vehsPerHour="69.78" departLane="best" departPos="random" departSpeed="0" from="198876045#1" to="198876043#2"/>
  <flow id="car_-28231434_23241821#0_000d2e44" type="car" begin="0" end="3600" vehsPerHour="23.52" departLane="best" departPos="random" departSpeed="0" from="-28231434" to="23241821#0"/>
  <flow id="car_-28231434_198876042#0_000d2e44" type="car" begin="0" end="3600" vehsPerHour="19.53" departLane="best" departPos="random" departSpeed="0" from="-28231434" to="198876042#0"/>
  <flow id="car_-28231434_193253427#0_000d2e44" type="car" begin="0" end="3600" vehsPerHour="16.23" departLane="best" departPos="random" departSpeed="0" from="-28231434" to="193253427#0"/>
  <flow id="car_-28231434_198876043#2_000d2e44" type="car" begin="0" end="3600" vehsPerHour="16.83" departLane="best" departPos="random" departSpeed="0" from="-28231434" to="198876043#2"/>
  <flow id="car_-28231434_28231434_000d2e44" type="car" begin="0" end="3600" vehsPerHour="13.23" departLane="best" departPos="random" departSpeed="0" from="-28231434" to="28231434"/>
  <flow id="motorcycle_-28231434_23241821#0_000d2e44" type="motorcycle" begin="0" end="3600" vehsPerHour="65.08" departLane="best" departPos="random" departSpeed="0" from="-28231434" to="23241821#0"/>
  <flow id="motorcycle_-28231434_198876042#0_000d2e44" type="motorcycle" begin="0" end="3600" vehsPerHour="59.69" departLane="best" departPos="random" departSpeed="0" from="-28231434" to="198876042#0"/>
  <flow id="motorcycle_-28231434_193253427#0_000d2e44" type="motorcycle" begin="0" end="3600" vehsPerHour="53.22" departLane="best" departPos="random" departSpeed="0" from="-28231434" to="193253427#0"/>
  <flow id="motorcycle_-28231434_198876043#2_000d2e44" type="motorcycle" begin="0" end="3600" vehsPerHour="45.76" departLane="best" departPos="random" departSpeed="0" from="-28231434" to="198876043#2"/>
  <flow id="motorcycle_-28231434_28231434_000d2e44" type="motorcycle" begin="0" end="3600" vehsPerHour="39.03" departLane="best" departPos="random" departSpeed="0" from="-28231434" to="28231434"/>
  <flow id="car_-55029244#0_198876042#0_000d2e44" type="car" begin="0" end="3600" vehsPerHour="27.82" departLane="best" departPos="random" departSpeed="0" from="-55029244#0" to="198876042#0"/>
  <flow id="car_-55029244#0_193253427#0_000d2e44" type="car" begin="0" end="3600" vehsPerHour="24.49" departLane="best" departPos="random" departSpeed="0" from="-55029244#0" to="193253427#0"/>
  <flow id="car_-55029244#0_198876043#2_000d2e44" type="car" begin="0" end="3600" vehsPerHour="20.97" departLane="best" departPos="random" departSpeed="0" from="-55029244#0" to="198876043#2"/>
  <flow id="car_-55029244#0_28231434_000d2e44" type="car" begin="0" end="3600" vehsPerHour="16.10" departLane="best" departPos="random" departSpeed="0" from="-55029244#0" to="28231434"/>
  <flow id="car_-55029244#0_23241821#0_000d2e44" type="car" begin="0" end="3600" vehsPerHour="13.14" departLane="best" departPos="random" departSpeed="0" from="-55029244#0" to="23241821#0"/>
  <flow id="motorcycle_-55029244#0_198876042#0_000d2e44" type="motorcycle" begin="0" end="3600" vehsPerHour="79.58" departLane="best" departPos="random" departSpeed="0" from="-55029244#0" to="198876042#0"/>
  <flow id="motorcycle_-55029244#0_193253427#0_000d2e44" type="motorcycle" begin="0" end="3600" vehsPerHour="66.03" departLane="best" departPos="random" departSpeed="0" from="-55029244#0" to="193253427#0"/>
  <flow id="motorcycle_-55029244#0_198876043#2_000d2e44" type="motorcycle" begin="0" end="3600" vehsPerHour="59.12" departLane="best" departPos="random" departSpeed="0" from="-55029244#0" to="198876043#2"/>
  <flow id="motorcycle_-55029244#0_28231434_000d2e44" type="motorcycle" begin="0" end="3600" vehsPerHour="51.83" departLane="best" departPos="random" departSpeed="0" from="-55029244#0" to="28231434"/>
  <flow id="motorcycle_-55029244#0_23241821#0_000d2e44" type="motorcycle" begin="0" end="3600" vehsPerHour="48.59" departLane="best" departPos="random" departSpeed="0" from="-55029244#0" to="23241821#0"/>
  <flow id="car_34241530#0_198876042#0_000d2e44" type="car" begin="0" end="3600" vehsPerHour="26.68" departLane="best" departPos="random" departSpeed="0" from="34241530#0" to="198876042#0"/>
  <flow id="car_34241530#0_193253427#0_000d2e44" type="car" begin="0" end="3600" vehsPerHour="24.34" departLane="best" departPos="random" departSpeed="0" from="34241530#0" to="193253427#0"/>
  <flow id="car_34241530#0_198876043#2_000d2e44" type="car" begin="0" end="3600" vehsPerHour="20.45" departLane="best" departPos="random" departSpeed="0" from="34241530#0" to="198876043#2"/>
  <flow id="car_34241530#0_28231434_000d2e44" type="car" begin="0" end="3600" vehsPerHour="16.91" departLane="best" departPos="random" departSpeed="0" from="34241530#0" to="28231434"/>
  <flow id="car_34241530#0_23241821#0_000d2e44" type="car" begin="0" end="3600" vehsPerHour="12.92" departLane="best" departPos="random" departSpeed="0" from="34241530#0" to="23241821#0"/>
  <flow id="motorcycle_34241530#0_198876042#0_000d2e44" type="motorcycle" begin="0" end="3600" vehsPerHour="79.35" departLane="best" departPos="random" departSpeed="0" from="34241530#0" to="198876042#0"/>
  <flow id="motorcycle_34241530#0_193253427#0_000d2e44" type="motorcycle" begin="0" end="3600" vehsPerHour="64.74" departLane="best" departPos="random" departSpeed="0" from="34241530#0" to="193253427#0"/>
  <flow id="motorcycle_34241530#0_198876043#2_000d2e44" type="motorcycle" begin="0" end="3600" vehsPerHour="62.54" departLane="best" departPos="random" departSpeed="0" from="34241530#0" to="198876043#2"/>
  <flow id="motorcycle_34241530#0_28231434_000d2e44" type="motorcycle" begin="0" end="3600" vehsPerHour="55.37" departLane="best" departPos="random" departSpeed="0" from="34241530#0" to="28231434"/>
  <flow id="motorcycle_34241530#0_23241821#0_000d2e44" type="motorcycle" begin="0" end="3600" vehsPerHour="47.26" departLane="best" departPos="random" departSpeed="0" from="34241530#0" to="23241821#0"/>
  <flow id="truck_34241530#0_198876042#0_000d2e44" type="truck" begin="0" end="3600" vehsPerHour="11.21" departLane="best" departPos="random" departSpeed="0" from="34241530#0" to="198876042#0"/>
</routes>
