<routes>
<vType id="car" vClass="passenger" accel="2.6" decel="4.5" sigma="0.5" length="5.0" maxSpeed="13.9"/>
<vType id="motorcycle" vClass="motorcycle" accel="3.0" decel="5.0" sigma="0.5" length="2.0" maxSpeed="14.0"/>
<vType id="truck" vClass="truck" accel="1.2" decel="3.5" sigma="0.5" length="12.0" maxSpeed="10.0"/>

  <flow id="car_222682222#1_193253427#0_000dd01b" type="car" begin="0" end="3600" vehsPerHour="59.53" departLane="best" departPos="random" departSpeed="0" from="222682222#1" to="193253427#0"/>
  <flow id="car_222682222#1_198876043#0_000dd01b" type="car" begin="0" end="3600" vehsPerHour="50.99" departLane="best" departPos="random" departSpeed="0" from="222682222#1" to="198876043#0"/>
  <flow id="car_222682222#1_28231434_000dd01b" type="car" begin="0" end="3600" vehsPerHour="50.01" departLane="best" departPos="random" departSpeed="0" from="222682222#1" to="28231434"/>
  <flow id="car_222682222#1_23241821#0_000dd01b" type="car" begin="0" end="3600" vehsPerHour="40.10" departLane="best" departPos="random" departSpeed="0" from="222682222#1" to="23241821#0"/>
  <flow id="car_222682222#1_198876042#0_000dd01b" type="car" begin="0" end="3600" vehsPerHour="33.96" departLane="best" departPos="random" departSpeed="0" from="222682222#1" to="198876042#0"/>
  <flow id="motorcycle_222682222#1_193253427#0_000dd01b" type="motorcycle" begin="0" end="3600" vehsPerHour="179.06" departLane="best" departPos="random" departSpeed="0" from="222682222#1" to="193253427#0"/>
  <flow id="motorcycle_222682222#1_198876043#0_000dd01b" type="motorcycle" begin="0" end="3600" vehsPerHour="153.26" departLane="best" departPos="random" departSpeed="0" from="222682222#1" to="198876043#0"/>
  <flow id="motorcycle_222682222#1_28231434_000dd01b" type="motorcycle" begin="0" end="3600" vehsPerHour="143.74" departLane="best" departPos="random" departSpeed="0" from="222682222#1" to="28231434"/>
  <flow id="motorcycle_222682222#1_23241821#0_000dd01b" type="motorcycle" begin="0" end="3600" vehsPerHour="109.55" departLane="best" departPos="random" departSpeed="0" from="222682222#1" to="23241821#0"/>
  <flow id="motorcycle_222682222#1_198876042#0_000dd01b" type="motorcycle" begin="0" end="3600" vehsPerHour="101.07" departLane="best" departPos="random" departSpeed="0" from="222682222#1" to="198876042#0"/>
  <flow id="car_193253433#2_198876043#0_000dd01b" type="car" begin="0" end="3600" vehsPerHour="39.14" departLane="best" departPos="random" departSpeed="0" from="193253433#2" to="198876043#0"/>
  <flow id="car_193253433#2_28231434_000dd01b" type="car" begin="0" end="3600" vehsPerHour="33.05" departLane="best" departPos="random" departSpeed="0" from="193253433#2" to="28231434"/>
  <flow id="car_193253433#2_23241821#0_000dd01b" type="car" begin="0" end="3600" vehsPerHour="32.25" departLane="best" departPos="random" departSpeed="0" from="193253433#2" to="23241821#0"/>
  <flow id="car_193253433#2_198876042#0_000dd01b" type="car" begin="0" end="3600" vehsPerHour="27.00" departLane="best" departPos="random" departSpeed="0" from="193253433#2" to="198876042#0"/>
  <flow id="car_193253433#2_193253427#0_000dd01b" type="car" begin="0" end="3600" vehsPerHour="23.90" departLane="best" departPos="random" departSpeed="0" from="193253433#2" to="193253427#0"/>
  <flow id="motorcycle_193253433#2_198876043#0_000dd01b" type="motorcycle" begin="0" end="3600" vehsPerHour="112.21" departLane="best" departPos="random" departSpeed="0" from="193253433#2" to="198876043#0"/>
  <flow id="motorcycle_193253433#2_28231434_000dd01b" type="motorcycle" begin="0" end="3600" vehsPerHour="103.82" departLane="best" departPos="random" departSpeed="0" from="193253433#2" to="28231434"/>
  <flow id="motorcycle_193253433#2_23241821#0_000dd01b" type="motorcycle" begin="0" end="3600" vehsPerHour="93.89" departLane="best" departPos="random" departSpeed="0" from="193253433#2" to="23241821#0"/>
  <flow id="motorcycle_193253433#2_198876042#0_000dd01b" type="motorcycle" begin="0" end="3600" vehsPerHour="79.63" departLane="best" departPos="random" departSpeed="0" from="193253433#2" to="198876042#0"/>
  <flow id="motorcycle_193253433#2_193253427#0_000dd01b" type="motorcycle" begin="0" end="3600" vehsPerHour="65.84" departLane="best" departPos="random" departSpeed="0" from="193253433#2" to="193253427#0"/>
  <flow id="car_198876045#1_28231434_000dd01b" type="car" begin="0" end="3600" vehsPerHour="35.31" departLane="best" departPos="random" departSpeed="0" from="198876045#1" to="28231434"/>
  <flow id="car_198876045#1_23241821#0_000dd01b" type="car" begin="0" end="3600" vehsPerHour="28.96" departLane="best" departPos="random" departSpeed="0" from="198876045#1" to="23241821#0"/>
  <flow id="car_198876045#1_198876042#0_000dd01b" type="car" begin="0" end="3600" vehsPerHour="27.68" departLane="best" departPos="random" departSpeed="0" from="198876045#1" to="198876042#0"/>
  <flow id="car_198876045#1_193253427#0_000dd01b" type="car" begin="0" end="3600" vehsPerHour="23.66" departLane="best" departPos="random" departSpeed="0" from="198876045#1" to="193253427#0"/>
  <flow id="car_198876045#1_198876043#2_000dd01b" type="car" begin="0" end="3600" vehsPerHour="21.05" departLane="best" departPos="random" departSpeed="0" from="198876045#1" to="198876043#2"/>
  <flow id="motorcycle_198876045#1_28231434_000dd01b" type="motorcycle" begin="0" end="3600" vehsPerHour="99.31" departLane="best" departPos="random" departSpeed="0" from="198876045#1" to="28231434"/>
  <flow id="motorcycle_198876045#1_23241821#0_000dd01b" type="motorcycle" begin="0" end="3600" vehsPerHour="91.00" departLane="best" departPos="random" departSpeed="0" from="198876045#1" to="23241821#0"/>
  <flow id="motorcycle_198876045#1_198876042#0_000dd01b" type="motorcycle" begin="0" end="3600" vehsPerHour="78.44" departLane="best" departPos="random" departSpeed="0" from="198876045#1" to="198876042#0"/>
  <flow id="motorcycle_198876045#1_193253427#0_000dd01b" type="motorcycle" begin="0" end="3600" vehsPerHour="74.90" departLane="best" departPos="random" departSpeed="0" from="198876045#1" to="193253427#0"/>
  <flow id="motorcycle_198876045#1_198876043#2_000dd01b" type="motorcycle" begin="0" end="3600" vehsPerHour="64.74" departLane="best" departPos="random" departSpeed="0" from="198876045#1" to="198876043#2"/>
  <flow id="car_-28231434_23241821#0_000dd01b" type="car" begin="0" end="3600" vehsPerHour="22.93" departLane="best" departPos="random" departSpeed="0" from="-28231434" to="23241821#0"/>
  <flow id="car_-28231434_198876042#0_000dd01b" type="car" begin="0" end="3600" vehsPerHour="21.17" departLane="best" departPos="random" departSpeed="0" from="-28231434" to="198876042#0"/>
  <flow id="car_-28231434_193253427#0_000dd01b" type="car" begin="0" end="3600" vehsPerHour="17.45" departLane="best" departPos="random" departSpeed="0" from="-28231434" to="193253427#0"/>
  <flow id="car_-28231434_198876043#2_000dd01b" type="car" begin="0" end="3600" vehsPerHour="17.35" departLane="best" departPos="random" departSpeed="0" from="-28231434" to="198876043#2"/>
  <flow id="car_-28231434_28231434_000dd01b" type="car" begin="0" end="3600" vehsPerHour="13.44" departLane="best" departPos="random" departSpeed="0" from="-28231434" to="28231434"/>
  <flow id="motorcycle_-28231434_23241821#0_000dd01b" type="motorcycle" begin="0" end="3600" vehsPerHour="66.05" departLane="best" departPos="random" departSpeed="0" from="-28231434" to="23241821#0"/>
  <flow id="motorcycle_-28231434_198876042#0_000dd01b" type="motorcycle" begin="0" end="3600" vehsPerHour="60.87" departLane="best" departPos="random" departSpeed="0" from="-28231434" to="198876042#0"/>
  <flow id="motorcycle_-28231434_193253427#0_000dd01b" type="motorcycle" begin="0" end="3600" vehsPerHour="51.38" departLane="best" departPos="random" departSpeed="0" from="-28231434" to="193253427#0"/>
  <flow id="motorcycle_-28231434_198876043#2_000dd01b" type="motorcycle" begin="0" end="3600" vehsPerHour="46.25" departLane="best" departPos="random" departSpeed="0" from="-28231434" to="198876043#2"/>
  <flow id="motorcycle_-28231434_28231434_000dd01b" type="motorcycle" begin="0" end="3600" vehsPerHour="40.22" departLane="best" departPos="random" departSpeed="0" from="-28231434" to="28231434"/>
  <flow id="car_-55029244#0_198876042#0_000dd01b" type="car" begin="0" end="3600" vehsPerHour="28.28" departLane="best" departPos="random" departSpeed="0" from="-55029244#0" to="198876042#0"/>
  <flow id="car_-55029244#0_193253427#0_000dd01b" type="car" begin="0" end="3600" vehsPerHour="24.76" departLane="best" departPos="random" departSpeed="0" from="-55029244#0" to="193253427#0"/>
  <flow id="car_-55029244#0_198876043#2_000dd01b" type="car" begin="0" end="3600" vehsPerHour="20.58" departLane="best" departPos="random" departSpeed="0" from="-55029244#0" to="198876043#2"/>
  <flow id="car_-55029244#0_28231434_000dd01b" type="car" begin="0" end="3600" vehsPerHour="17.10" departLane="best" departPos="random" departSpeed="0" from="-55029244#0" to="28231434"/>
  <flow id="car_-55029244#0_23241821#0_000dd01b" type="car" begin="0" end="3600" vehsPerHour="13.60" departLane="best" departPos="random" departSpeed="0" from="-55029244#0" to="23241821#0"/>
  <flow id="motorcycle_-55029244#0_198876042#0_000dd01b" type="motorcycle" begin="0" end="3600" vehsPerHour="81.95" departLane="best" departPos="random" departSpeed="0" from="-55029244#0" to="198876042#0"/>
  <flow id="motorcycle_-55029244#0_193253427#0_000dd01b" type="motorcycle" begin="0" end="3600" vehsPerHour="69.07" departLane="best" departPos="random" departSpeed="0" from="-55029244#0" to="193253427#0"/>
  <flow id="motorcycle_-55029244#0_198876043#2_000dd01b" type="motorcycle" begin="0" end="3600" vehsPerHour="61.86" departLane="best" departPos="random" departSpeed="0" from="-55029244#0" to="198876043#2"/>
  <flow id="motorcycle_-55029244#0_28231434_000dd01b" type="motorcycle" begin="0" end="3600" vehsPerHour="55.40" departLane="best" departPos="random" departSpeed="0" from="-55029244#0" to="28231434"/>
  <flow id="motorcycle_-55029244#0_23241821#0_000dd01b" type="motorcycle" begin="0" end="3600" vehsPerHour="48.27" departLane="best" departPos="random" departSpeed="0" from="-55029244#0" to="23241821#0"/>
  <flow id="car_34241530#0_198876042#0_000dd01b" type="car" begin="0" end="3600" vehsPerHour="26.91" departLane="best" departPos="random" departSpeed="0" from="34241530#0" to="198876042#0"/>
  <flow id="car_34241530#0_193253427#0_000dd01b" type="car" begin="0" end="3600" vehsPerHour="22.59" departLane="best" departPos="random" departSpeed="0" from="34241530#0" to="193253427#0"/>
  <flow id="car_34241530#0_198876043#2_000dd01b" type="car" begin="0" end="3600" vehsPerHour="21.05" departLane="best" departPos="random" departSpeed="0" from="34241530#0" to="198876043#2"/>
  <flow id="car_34241530#0_28231434_000dd01b" type="car" begin="0" end="3600" vehsPerHour="17.59" departLane="best" departPos="random" departSpeed="0" from="34241530#0" to="28231434"/>
  <flow id="car_34241530#0_23241821#0_000dd01b" type="car" begin="0" end="3600" vehsPerHour="13.15" departLane="best" departPos="random" departSpeed="0" from="34241530#0" to="23241821#0"/>
  <flow id="motorcycle_34241530#0_198876042#0_000dd01b" type="motorcycle" begin="0" end="3600" vehsPerHour="80.90" departLane="best" departPos="random" departSpeed="0" from="34241530#0" to="198876042#0"/>
  <flow id="motorcycle_34241530#0_193253427#0_000dd01b" type="motorcycle" begin="0" end="3600" vehsPerHour="69.66" departLane="best" departPos="random" departSpeed="0" from="34241530#0" to="193253427#0"/>
  <flow id="motorcycle_34241530#0_198876043#2_000dd01b" type="motorcycle" begin="0" end="3600" vehsPerHour="61.76" departLane="best" departPos="random" departSpeed="0" from="34241530#0" to="198876043#2"/>
  <flow id="motorcycle_34241530#0_28231434_000dd01b" type="motorcycle" begin="0" end="3600" vehsPerHour="53.93" departLane="best" departPos="random" departSpeed="0" from="34241530#0" to="28231434"/>
  <flow id="motorcycle_34241530#0_23241821#0_000dd01b" type="motorcycle" begin="0" end="3600" vehsPerHour="48.12" departLane="best" departPos="random" departSpeed="0" from="34241530#0" to="23241821#0"/>
  <flow id="truck_34241530#0_198876042#0_000dd01b" type="truck" begin="0" end="3600" vehsPerHour="11.29" departLane="best" departPos="random" departSpeed="0" from="34241530#0" to="198876042#0"/>
</routes>
