<routes>
<vType id="car" vClass="passenger" accel="2.6" decel="4.5" sigma="0.5" length="5.0" maxSpeed="13.9"/>
<vType id="motorcycle" vClass="motorcycle" accel="3.0" decel="5.0" sigma="0.5" length="2.0" maxSpeed="14.0"/>
<vType id="truck" vClass="truck" accel="1.2" decel="3.5" sigma="0.5" length="12.0" maxSpeed="10.0"/>

  <flow id="car_222682222#1_193253427#0_00068ed8" type="car" begin="0" end="3600" vehsPerHour="60.67" departLane="best" departPos="random" departSpeed="0" from="222682222#1" to="193253427#0"/>
  <flow id="car_222682222#1_198876043#0_00068ed8" type="car" begin="0" end="3600" vehsPerHour="49.53" departLane="best" departPos="random" departSpeed="0" from="222682222#1" to="198876043#0"/>
  <flow id="car_222682222#1_28231434_00068ed8" type="car" begin="0" end="3600" vehsPerHour="48.35" departLane="best" departPos="random" departSpeed="0" from="222682222#1" to="28231434"/>
  <flow id="car_222682222#1_23241821#0_00068ed8" type="car" begin="0" end="3600" vehsPerHour="42.04" departLane="best" departPos="random" departSpeed="0" from="222682222#1" to="23241821#0"/>
  <flow id="car_222682222#1_198876042#0_00068ed8" type="car" begin="0" end="3600" vehsPerHour="34.96" departLane="best" departPos="random" departSpeed="0" from="222682222#1" to="198876042#0"/>
  <flow id="motorcycle_222682222#1_193253427#0_00068ed8" type="motorcycle" begin="0" end="3600" vehsPerHour="174.91" departLane="best" departPos="random" departSpeed="0" from="222682222#1" to="193253427#0"/>
  <flow id="motorcycle_222682222#1_198876043#0_00068ed8" type="motorcycle" begin="0" end="3600" vehsPerHour="152.42" departLane="best" departPos="random" departSpeed="0" from="222682222#1" to="198876043#0"/>
  <flow id="motorcycle_222682222#1_28231434_00068ed8" type="motorcycle" begin="0" end="3600" vehsPerHour="139.77" departLane="best" departPos="random" departSpeed="0" from="222682222#1" to="28231434"/>
  <flow id="motorcycle_222682222#1_23241821#0_00068ed8" type="motorcycle" begin="0" end="3600" vehsPerHour="110.11" departLane="best" departPos="random" departSpeed="0" from="222682222#1" to="23241821#0"/>
  <flow id="motorcycle_222682222#1_198876042#0_00068ed8" type="motorcycle" begin="0" end="3600" vehsPerHour="105.27" departLane="best" departPos="random" departSpeed="0" from="222682222#1" to="198876042#0"/>
  <flow id="car_193253433#2_198876043#0_00068ed8" type="car" begin="0" end="3600" vehsPerHour="42.14" departLane="best" departPos="random" departSpeed="0" from="193253433#2" to="198876043#0"/>
  <flow id="car_193253433#2_28231434_00068ed8" type="car" begin="0" end="3600" vehsPerHour="33.73" departLane="best" departPos="random" departSpeed="0" from="193253433#2" to="28231434"/>
  <flow id="car_193253433#2_23241821#0_00068ed8" type="car" begin="0" end="3600" vehsPerHour="32.56" departLane="best" departPos="random" departSpeed="0" from="193253433#2" to="23241821#0"/>
  <flow id="car_193253433#2_198876042#0_00068ed8" type="car" begin="0" end="3600" vehsPerHour="28.14" departLane="best" departPos="random" departSpeed="0" from="193253433#2" to="198876042#0"/>
  <flow id="car_193253433#2_193253427#0_00068ed8" type="car" begin="0" end="3600" vehsPerHour="23.57" departLane="best" departPos="random" departSpeed="0" from="193253433#2" to="193253427#0"/>
  <flow id="motorcycle_193253433#2_198876043#0_00068ed8" type="motorcycle" begin="0" end="3600" vehsPerHour="116.51" departLane="best" departPos="random" departSpeed="0" from="193253433#2" to="198876043#0"/>
  <flow id="motorcycle_193253433#2_28231434_00068ed8" type="motorcycle" begin="0" end="3600" vehsPerHour="97.33" departLane="best" departPos="random" departSpeed="0" from="193253433#2" to="28231434"/>
  <flow id="motorcycle_193253433#2_23241821#0_00068ed8" type="motorcycle" begin="0" end="3600" vehsPerHour="91.21" departLane="best" departPos="random" departSpeed="0" from="193253433#2" to="23241821#0"/>
  <flow id="motorcycle_193253433#2_198876042#0_00068ed8" type="motorcycle" begin="0" end="3600" vehsPerHour="78.18" departLane="best" departPos="random" departSpeed="0" from="193253433#2" to="198876042#0"/>
  <flow id="motorcycle_193253433#2_193253427#0_00068ed8" type="motorcycle" begin="0" end="3600" vehsPerHour="70.54" departLane="best" departPos="random" departSpeed="0" from="193253433#2" to="193253427#0"/>
  <flow id="car_198876045#1_28231434_00068ed8" type="car" begin="0" end="3600" vehsPerHour="34.57" departLane="best" departPos="random" departSpeed="0" from="198876045#1" to="28231434"/>
  <flow id="car_198876045#1_23241821#0_00068ed8" type="car" begin="0" end="3600" vehsPerHour="29.12" departLane="best" departPos="random" departSpeed="0" from="198876045#1" to="23241821#0"/>
  <flow id="car_198876045#1_198876042#0_00068ed8" type="car" begin="0" end="3600" vehsPerHour="26.21" departLane="best" departPos="random" departSpeed="0" from="198876045#1" to="198876042#0"/>
  <flow id="car_198876045#1_193253427#0_00068ed8" type="car" begin="0" end="3600" vehsPerHour="23.26" departLane="best" departPos="random" departSpeed="0" from="198876045#1" to="193253427#0"/>
  <flow id="car_198876045#1_198876043#2_00068ed8" type="car" begin="0" end="3600" vehsPerHour="20.62" departLane="best" departPos="random" departSpeed="0" from="198876045#1" to="198876043#2"/>
  <flow id="motorcycle_198876045#1_28231434_00068ed8" type="motorcycle" begin="0" end="3600" vehsPerHour="101.30" departLane="best" departPos="random" departSpeed="0" from="198876045#1" to="28231434"/>
  <flow id="motorcycle_198876045#1_23241821#0_00068ed8" type="motorcycle" begin="0" end="3600" vehsPerHour="91.89" departLane="best" departPos="random" departSpeed="0" from="198876045#1" to="23241821#0"/>
  <flow id="motorcycle_198876045#1_198876042#0_00068ed8" type="motorcycle" begin="0" end="3600" vehsPerHour="77.23" departLane="best" departPos="random" departSpeed="0" from="198876045#1" to="198876042#0"/>
  <flow id="motorcycle_198876045#1_193253427#0_00068ed8" type="motorcycle" begin="0" end="3600" vehsPerHour="72.08" departLane="best" departPos="random" departSpeed="0" from="198876045#1" to="193253427#0"/>
  <flow id="motorcycle_198876045#1_198876043#2_00068ed8" type="motorcycle" begin="0" end="3600" vehsPerHour="70.34" departLane="best" departPos="random" departSpeed="0" from="198876045#1" to="198876043#2"/>
  <flow id="car_-28231434_23241821#0_00068ed8" type="car" begin="0" end="3600" vehsPerHour="22.69" departLane="best" departPos="random" departSpeed="0" from="-28231434" to="23241821#0"/>
  <flow id="car_-28231434_198876042#0_00068ed8" type="car" begin="0" end="3600" vehsPerHour="19.74" departLane="best" departPos="random" departSpeed="0" from="-28231434" to="198876042#0"/>
  <flow id="car_-28231434_193253427#0_00068ed8" type="car" begin="0" end="3600" vehsPerHour="16.54" departLane="best" departPos="random" departSpeed="0" from="-28231434" to="193253427#0"/>
  <flow id="car_-28231434_198876043#2_00068ed8" type="car" begin="0" end="3600" vehsPerHour="17.36" departLane="best" departPos="random" departSpeed="0" from="-28231434" to="198876043#2"/>
  <flow id="car_-28231434_28231434_00068ed8" type="car" begin="0" end="3600" vehsPerHour="12.82" departLane="best" departPos="random" departSpeed="0" from="-28231434" to="28231434"/>
  <flow id="motorcycle_-28231434_23241821#0_00068ed8" type="motorcycle" begin="0" end="3600" vehsPerHour="69.70" departLane="best" departPos="random" departSpeed="0" from="-28231434" to="23241821#0"/>
  <flow id="motorcycle_-28231434_198876042#0_00068ed8" type="motorcycle" begin="0" end="3600" vehsPerHour="59.74" departLane="best" departPos="random" departSpeed="0" from="-28231434" to="198876042#0"/>
  <flow id="motorcycle_-28231434_193253427#0_00068ed8" type="motorcycle" begin="0" end="3600" vehsPerHour="51.68" departLane="best" departPos="random" departSpeed="0" from="-28231434" to="193253427#0"/>
  <flow id="motorcycle_-28231434_198876043#2_00068ed8" type="motorcycle" begin="0" end="3600" vehsPerHour="49.17" departLane="best" departPos="random" departSpeed="0" from="-28231434" to="198876043#2"/>
  <flow id="motorcycle_-28231434_28231434_00068ed8" type="motorcycle" begin="0" end="3600" vehsPerHour="38.84" departLane="best" departPos="random" departSpeed="0" from="-28231434" to="28231434"/>
  <flow id="car_-55029244#0_198876042#0_00068ed8" type="car" begin="0" end="3600" vehsPerHour="26.92" departLane="best" departPos="random" departSpeed="0" from="-55029244#0" to="198876042#0"/>
  <flow id="car_-55029244#0_193253427#0_00068ed8" type="car" begin="0" end="3600" vehsPerHour="24.04" departLane="best" departPos="random" departSpeed="0" from="-55029244#0" to="193253427#0"/>
  <flow id="car_-55029244#0_198876043#2_00068ed8" type="car" begin="0" end="3600" vehsPerHour="19.57" departLane="best" departPos="random" departSpeed="0" from="-55029244#0" to="198876043#2"/>
  <flow id="car_-55029244#0_28231434_00068ed8" type="car" begin="0" end="3600" vehsPerHour="16.57" departLane="best" departPos="random" departSpeed="0" from="-55029244#0" to="28231434"/>
  <flow id="car_-55029244#0_23241821#0_00068ed8" type="car" begin="0" end="3600" vehsPerHour="14.14" departLane="best" departPos="random" departSpeed="0" from="-55029244#0" to="23241821#0"/>
  <flow id="motorcycle_-55029244#0_198876042#0_00068ed8" type="motorcycle" begin="0" end="3600" vehsPerHour="82.26" departLane="best" departPos="random" departSpeed="0" from="-55029244#0" to="198876042#0"/>
  <flow id="motorcycle_-55029244#0_193253427#0_00068ed8" type="motorcycle" begin="0" end="3600" vehsPerHour="64.79" departLane="best" departPos="random" departSpeed="0" from="-55029244#0" to="193253427#0"/>
  <flow id="motorcycle_-55029244#0_198876043#2_00068ed8" type="motorcycle" begin="0" end="3600" vehsPerHour="59.58" departLane="best" departPos="random" departSpeed="0" from="-55029244#0" to="198876043#2"/>
  <flow id="motorcycle_-55029244#0_28231434_00068ed8" type="motorcycle" begin="0" end="3600" vehsPerHour="51.74" departLane="best" departPos="random" departSpeed="0" from="-55029244#0" to="28231434"/>
  <flow id="motorcycle_-55029244#0_23241821#0_00068ed8" type="motorcycle" begin="0" end="3600" vehsPerHour="47.69" departLane="best" departPos="random" departSpeed="0" from="-55029244#0" to="23241821#0"/>
  <flow id="car_34241530#0_198876042#0_00068ed8" type="car" begin="0" end="3600" vehsPerHour="25.79" departLane="best" departPos="random" departSpeed="0" from="34241530#0" to="198876042#0"/>
  <flow id="car_34241530#0_193253427#0_00068ed8" type="car" begin="0" end="3600" vehsPerHour="23.16" departLane="best" departPos="random" departSpeed="0" from="34241530#0" to="193253427#0"/>
  <flow id="car_34241530#0_198876043#2_00068ed8" type="car" begin="0" end="3600" vehsPerHour="20.85" departLane="best" departPos="random" departSpeed="0" from="34241530#0" to="198876043#2"/>
  <flow id="car_34241530#0_28231434_00068ed8" type="car" begin="0" end="3600" vehsPerHour="16.69" departLane="best" departPos="random" departSpeed="0" from="34241530#0" to="28231434"/>
  <flow id="car_34241530#0_23241821#0_00068ed8" type="car" begin="0" end="3600" vehsPerHour="13.62" departLane="best" departPos="random" departSpeed="0" from="34241530#0" to="23241821#0"/>
  <flow id="motorcycle_34241530#0_198876042#0_00068ed8" type="motorcycle" begin="0" end="3600" vehsPerHour="79.20" departLane="best" departPos="random" departSpeed="0" from="34241530#0" to="198876042#0"/>
  <flow id="motorcycle_34241530#0_193253427#0_00068ed8" type="motorcycle" begin="0" end="3600" vehsPerHour="65.46" departLane="best" departPos="random" departSpeed="0" from="34241530#0" to="193253427#0"/>
  <flow id="motorcycle_34241530#0_198876043#2_00068ed8" type="motorcycle" begin="0" end="3600" vehsPerHour="62.76" departLane="best" departPos="random" departSpeed="0" from="34241530#0" to="198876043#2"/>
  <flow id="motorcycle_34241530#0_28231434_00068ed8" type="motorcycle" begin="0" end="3600" vehsPerHour="55.56" departLane="best" departPos="random" departSpeed="0" from="34241530#0" to="28231434"/>
  <flow id="motorcycle_34241530#0_23241821#0_00068ed8" type="motorcycle" begin="0" end="3600" vehsPerHour="48.87" departLane="best" departPos="random" departSpeed="0" from="34241530#0" to="23241821#0"/>
  <flow id="truck_34241530#0_198876042#0_00068ed8" type="truck" begin="0" end="3600" vehsPerHour="11.87" departLane="best" departPos="random" departSpeed="0" from="34241530#0" to="198876042#0"/>
</routes>
