<routes>
<vType id="car" vClass="passenger" accel="2.6" decel="4.5" sigma="0.5" length="5.0" maxSpeed="13.9"/>
<vType id="motorcycle" vClass="motorcycle" accel="3.0" decel="5.0" sigma="0.5" length="2.0" maxSpeed="14.0"/>
<vType id="truck" vClass="truck" accel="1.2" decel="3.5" sigma="0.5" length="12.0" maxSpeed="10.0"/>

  <flow id="car_222682222#1_193253427#0_000aac2e" type="car" begin="0" end="3600" vehsPerHour="59.25" departLane="best" departPos="random" departSpeed="0" from="222682222#1" to="193253427#0"/>
  <flow id="car_222682222#1_198876043#0_000aac2e" type="car" begin="0" end="3600" vehsPerHour="49.17" departLane="best" departPos="random" departSpeed="0" from="222682222#1" to="198876043#0"/>
  <flow id="car_222682222#1_28231434_000aac2e" type="car" begin="0" end="3600" vehsPerHour="49.59" departLane="best" departPos="random" departSpeed="0" from="222682222#1" to="28231434"/>
  <flow id="car_222682222#1_23241821#0_000aac2e" type="car" begin="0" end="3600" vehsPerHour="41.32" departLane="best" departPos="random" departSpeed="0" from="222682222#1" to="23241821#0"/>
  <flow id="car_222682222#1_198876042#0_000aac2e" type="car" begin="0" end="3600" vehsPerHour="33.63" departLane="best" departPos="random" departSpeed="0" from="222682222#1" to="198876042#0"/>
  <flow id="motorcycle_222682222#1_193253427#0_000aac2e" type="motorcycle" begin="0" end="3600" vehsPerHour="175.44" departLane="best" departPos="random" departSpeed="0" from="222682222#1" to="193253427#0"/>
  <flow id="motorcycle_222682222#1_198876043#0_000aac2e" type="motorcycle" begin="0" end="3600" vehsPerHour="153.94" departLane="best" departPos="random" departSpeed="0" from="222682222#1" to="198876043#0"/>
  <flow id="motorcycle_222682222#1_28231434_000aac2e" type="motorcycle" begin="0" end="3600" vehsPerHour="139.05" departLane="best" departPos="random" departSpeed="0" from="222682222#1" to="28231434"/>
  <flow id="motorcycle_222682222#1_23241821#0_000aac2e" type="motorcycle" begin="0" end="3600" vehsPerHour="116.98" departLane="best" departPos="random" departSpeed="0" from="222682222#1" to="23241821#0"/>
  <flow id="motorcycle_222682222#1_198876042#0_000aac2e" type="motorcycle" begin="0" end="3600" vehsPerHour="103.67" departLane="best" departPos="random" departSpeed="0" from="222682222#1" to="198876042#0"/>
  <flow id="car_193253433#2_198876043#0_000aac2e" type="car" begin="0" end="3600" vehsPerHour="38.64" departLane="best" departPos="random" departSpeed="0" from="193253433#2" to="198876043#0"/>
  <flow id="car_193253433#2_28231434_000aac2e" type="car" begin="0" end="3600" vehsPerHour="32.44" departLane="best" departPos="random" departSpeed="0" from="193253433#2" to="28231434"/>
  <flow id="car_193253433#2_23241821#0_000aac2e" type="car" begin="0" end="3600" vehsPerHour="34.68" departLane="best" departPos="random" departSpeed="0" from="193253433#2" to="23241821#0"/>
  <flow id="car_193253433#2_198876042#0_000aac2e" type="car" begin="0" end="3600" vehsPerHour="26.33" departLane="best" departPos="random" departSpeed="0" from="193253433#2" to="198876042#0"/>
  <flow id="car_193253433#2_193253427#0_000aac2e" type="car" begin="0" end="3600" vehsPerHour="22.44" departLane="best" departPos="random" departSpeed="0" from="193253433#2" to="193253427#0"/>
  <flow id="motorcycle_193253433#2_198876043#0_000aac2e" type="motorcycle" begin="0" end="3600" vehsPerHour="116.35" departLane="best" departPos="random" departSpeed="0" from="193253433#2" to="198876043#0"/>
  <flow id="motorcycle_193253433#2_28231434_000aac2e" type="motorcycle" begin="0" end="3600" vehsPerHour="105.39" departLane="best" departPos="random" departSpeed="0" from="193253433#2" to="28231434"/>
  <flow id="motorcycle_193253433#2_23241821#0_000aac2e" type="motorcycle" begin="0" end="3600" vehsPerHour="98.27" departLane="best" departPos="random" departSpeed="0" from="193253433#2" to="23241821#0"/>
  <flow id="motorcycle_193253433#2_198876042#0_000aac2e" type="motorcycle" begin="0" end="3600" vehsPerHour="83.35" departLane="best" departPos="random" departSpeed="0" from="193253433#2" to="198876042#0"/>
  <flow id="motorcycle_193253433#2_193253427#0_000aac2e" type="motorcycle" begin="0" end="3600" vehsPerHour="64.67" departLane="best" departPos="random" departSpeed="0" from="193253433#2" to="193253427#0"/>
  <flow id="car_198876045#1_28231434_000aac2e" type="car" begin="0" end="3600" vehsPerHour="34.41" departLane="best" departPos="random" departSpeed="0" from="198876045#1" to="28231434"/>
  <flow id="car_198876045#1_23241821#0_000aac2e" type="car" begin="0" end="3600" vehsPerHour="31.25" departLane="best" departPos="random" departSpeed="0" from="198876045#1" to="23241821#0"/>
  <flow id="car_198876045#1_198876042#0_000aac2e" type="car" begin="0" end="3600" vehsPerHour="27.59" departLane="best" departPos="random" departSpeed="0" from="198876045#1" to="198876042#0"/>
  <flow id="car_198876045#1_193253427#0_000aac2e" type="car" begin="0" end="3600" vehsPerHour="22.71" departLane="best" departPos="random" departSpeed="0" from="198876045#1" to="193253427#0"/>
  <flow id="car_198876045#1_198876043#2_000aac2e" type="car" begin="0" end="3600" vehsPerHour="19.33" departLane="best" departPos="random" departSpeed="0" from="198876045#1" to="198876043#2"/>
  <flow id="motorcycle_198876045#1_28231434_000aac2e" type="motorcycle" begin="0" end="3600" vehsPerHour="103.77" departLane="best" departPos="random" departSpeed="0" from="198876045#1" to="28231434"/>
  <flow id="motorcycle_198876045#1_23241821#0_000aac2e" type="motorcycle" begin="0" end="3600" vehsPerHour="84.58" departLane="best" departPos="random" departSpeed="0" from="198876045#1" to="23241821#0"/>
  <flow id="motorcycle_198876045#1_198876042#0_000aac2e" type="motorcycle" begin="0" end="3600" vehsPerHour="81.59" departLane="best" departPos="random" departSpeed="0" from="198876045#1" to="198876042#0"/>
  <flow id="motorcycle_198876045#1_193253427#0_000aac2e" type="motorcycle" begin="0" end="3600" vehsPerHour="74.64" departLane="best" departPos="random" departSpeed="0" from="198876045#1" to="193253427#0"/>
  <flow id="motorcycle_198876045#1_198876043#2_000aac2e" type="motorcycle" begin="0" end="3600" vehsPerHour="64.49" departLane="best" departPos="random" departSpeed="0" from="198876045#1" to="198876043#2"/>
  <flow id="car_-28231434_23241821#0_000aac2e" type="car" begin="0" end="3600" vehsPerHour="23.34" departLane="best" departPos="random" departSpeed="0" from="-28231434" to="23241821#0"/>
  <flow id="car_-28231434_198876042#0_000aac2e" type="car" begin="0" end="3600" vehsPerHour="20.10" departLane="best" departPos="random" departSpeed="0" from="-28231434" to="198876042#0"/>
  <flow id="car_-28231434_193253427#0_000aac2e" type="car" begin="0" end="3600" vehsPerHour="16.22" departLane="best" departPos="random" departSpeed="0" from="-28231434" to="193253427#0"/>
  <flow id="car_-28231434_198876043#2_000aac2e" type="car" begin="0" end="3600" vehsPerHour="16.25" departLane="best" departPos="random" departSpeed="0" from="-28231434" to="198876043#2"/>
  <flow id="car_-28231434_28231434_000aac2e" type="car" begin="0" end="3600" vehsPerHour="14.01" departLane="best" departPos="random" departSpeed="0" from="-28231434" to="28231434"/>
  <flow id="motorcycle_-28231434_23241821#0_000aac2e" type="motorcycle" begin="0" end="3600" vehsPerHour="66.80" departLane="best" departPos="random" departSpeed="0" from="-28231434" to="23241821#0"/>
  <flow id="motorcycle_-28231434_198876042#0_000aac2e" type="motorcycle" begin="0" end="3600" vehsPerHour="61.64" departLane="best" departPos="random" departSpeed="0" from="-28231434" to="198876042#0"/>
  <flow id="motorcycle_-28231434_193253427#0_000aac2e" type="motorcycle" begin="0" end="3600" vehsPerHour="52.71" departLane="best" departPos="random" departSpeed="0" from="-28231434" to="193253427#0"/>
  <flow id="motorcycle_-28231434_198876043#2_000aac2e" type="motorcycle" begin="0" end="3600" vehsPerHour="49.21" departLane="best" departPos="random" departSpeed="0" from="-28231434" to="198876043#2"/>
  <flow id="motorcycle_-28231434_28231434_000aac2e" type="motorcycle" begin="0" end="3600" vehsPerHour="39.35" departLane="best" departPos="random" departSpeed="0" from="-28231434" to="28231434"/>
  <flow id="car_-55029244#0_198876042#0_000aac2e" type="car" begin="0" end="3600" vehsPerHour="26.24" departLane="best" departPos="random" departSpeed="0" from="-55029244#0" to="198876042#0"/>
  <flow id="car_-55029244#0_193253427#0_000aac2e" type="car" begin="0" end="3600" vehsPerHour="23.82" departLane="best" departPos="random" departSpeed="0" from="-55029244#0" to="193253427#0"/>
  <flow id="car_-55029244#0_198876043#2_000aac2e" type="car" begin="0" end="3600" vehsPerHour="21.07" departLane="best" departPos="random" departSpeed="0" from="-55029244#0" to="198876043#2"/>
  <flow id="car_-55029244#0_28231434_000aac2e" type="car" begin="0" end="3600" vehsPerHour="17.63" departLane="best" departPos="random" departSpeed="0" from="-55029244#0" to="28231434"/>
  <flow id="car_-55029244#0_23241821#0_000aac2e" type="car" begin="0" end="3600" vehsPerHour="14.08" departLane="best" departPos="random" departSpeed="0" from="-55029244#0" to="23241821#0"/>
  <flow id="motorcycle_-55029244#0_198876042#0_000aac2e" type="motorcycle" begin="0" end="3600" vehsPerHour="79.77" departLane="best" departPos="random" departSpeed="0" from="-55029244#0" to="198876042#0"/>
  <flow id="motorcycle_-55029244#0_193253427#0_000aac2e" type="motorcycle" begin="0" end="3600" vehsPerHour="68.60" departLane="best" departPos="random" departSpeed="0" from="-55029244#0" to="193253427#0"/>
  <flow id="motorcycle_-55029244#0_198876043#2_000aac2e" type="motorcycle" begin="0" end="3600" vehsPerHour="59.52" departLane="best" departPos="random" departSpeed="0" from="-55029244#0" to="198876043#2"/>
  <flow id="motorcycle_-55029244#0_28231434_000aac2e" type="motorcycle" begin="0" end="3600" vehsPerHour="51.35" departLane="best" departPos="random" departSpeed="0" from="-55029244#0" to="28231434"/>
  <flow id="motorcycle_-55029244#0_23241821#0_000aac2e" type="motorcycle" begin="0" end="3600" vehsPerHour="48.81" departLane="best" departPos="random" departSpeed="0" from="-55029244#0" to="23241821#0"/>
  <flow id="car_34241530#0_198876042#0_000aac2e" type="car" begin="0" end="3600" vehsPerHour="27.69" departLane="best" departPos="random" departSpeed="0" from="34241530#0" to="198876042#0"/>
  <flow id="car_34241530#0_193253427#0_000aac2e" type="car" begin="0" end="3600" vehsPerHour="23.13" departLane="best" departPos="random" departSpeed="0" from="34241530#0" to="193253427#0"/>
  <flow id="car_34241530#0_198876043#2_000aac2e" type="car" begin="0" end="3600" vehsPerHour="20.99" departLane="best" departPos="random" departSpeed="0" from="34241530#0" to="198876043#2"/>
  <flow id="car_34241530#0_28231434_000aac2e" type="car" begin="0" end="3600" vehsPerHour="16.57" departLane="best" departPos="random" departSpeed="0" from="34241530#0" to="28231434"/>
  <flow id="car_34241530#0_23241821#0_000aac2e" type="car" begin="0" end="3600" vehsPerHour="13.08" departLane="best" departPos="random" departSpeed="0" from="34241530#0" to="23241821#0"/>
  <flow id="motorcycle_34241530#0_198876042#0_000aac2e" type="motorcycle" begin="0" end="3600" vehsPerHour="80.33" departLane="best" departPos="random" departSpeed="0" from="34241530#0" to="198876042#0"/>
  <flow id="motorcycle_34241530#0_193253427#0_000aac2e" type="motorcycle" begin="0" end="3600" vehsPerHour="65.46" departLane="best" departPos="random" departSpeed="0" from="34241530#0" to="193253427#0"/>
  <flow id="motorcycle_34241530#0_198876043#2_000aac2e" type="motorcycle" begin="0" end="3600" vehsPerHour="60.10" departLane="best" departPos="random" departSpeed="0" from="34241530#0" to="198876043#2"/>
  <flow id="motorcycle_34241530#0_28231434_000aac2e" type="motorcycle" begin="0" end="3600" vehsPerHour="54.98" departLane="best" departPos="random" departSpeed="0" from="34241530#0" to="28231434"/>
  <flow id="motorcycle_34241530#0_23241821#0_000aac2e" type="motorcycle" begin="0" end="3600" vehsPerHour="48.98" departLane="best" departPos="random" departSpeed="0" from="34241530#0" to="23241821#0"/>
  <flow id="truck_34241530#0_198876042#0_000aac2e" type="truck" begin="0" end="3600" vehsPerHour="11.83" departLane="best" departPos="random" departSpeed="0" from="34241530#0" to="198876042#0"/>
</routes>
