<routes>
<vType id="car" vClass="passenger" accel="2.6" decel="4.5" sigma="0.5" length="5.0" maxSpeed="13.9"/>
<vType id="motorcycle" vClass="motorcycle" accel="3.0" decel="5.0" sigma="0.5" length="2.0" maxSpeed="14.0"/>
<vType id="truck" vClass="truck" accel="1.2" decel="3.5" sigma="0.5" length="12.0" maxSpeed="10.0"/>

  <flow id="car_222682222#1_193253427#0_00072a0d" type="car" begin="0" end="3600" vehsPerHour="59.66" departLane="best" departPos="random" departSpeed="0" from="222682222#1" to="193253427#0"/>
  <flow id="car_222682222#1_198876043#0_00072a0d" type="car" begin="0" end="3600" vehsPerHour="50.15" departLane="best" departPos="random" departSpeed="0" from="222682222#1" to="198876043#0"/>
  <flow id="car_222682222#1_28231434_00072a0d" type="car" begin="0" end="3600" vehsPerHour="50.79" departLane="best" departPos="random" departSpeed="0" from="222682222#1" to="28231434"/>
  <flow id="car_222682222#1_23241821#0_00072a0d" type="car" begin="0" end="3600" vehsPerHour="41.26" departLane="best" departPos="random" departSpeed="0" from="222682222#1" to="23241821#0"/>
  <flow id="car_222682222#1_198876042#0_00072a0d" type="car" begin="0" end="3600" vehsPerHour="34.73" departLane="best" departPos="random" departSpeed="0" from="222682222#1" to="198876042#0"/>
  <flow id="motorcycle_222682222#1_193253427#0_00072a0d" type="motorcycle" begin="0" end="3600" vehsPerHour="178.98" departLane="best" departPos="random" departSpeed="0" from="222682222#1" to="193253427#0"/>
  <flow id="motorcycle_222682222#1_198876043#0_00072a0d" type="motorcycle" begin="0" end="3600" vehsPerHour="157.76" departLane="best" departPos="random" departSpeed="0" from="222682222#1" to="198876043#0"/>
  <flow id="motorcycle_222682222#1_28231434_00072a0d" type="motorcycle" begin="0" end="3600" vehsPerHour="135.60" departLane="best" departPos="random" departSpeed="0" from="222682222#1" to="28231434"/>
  <flow id="motorcycle_222682222#1_23241821#0_00072a0d" type="motorcycle" begin="0" end="3600" vehsPerHour="111.49" departLane="best" departPos="random" departSpeed="0" from="222682222#1" to="23241821#0"/>
  <flow id="motorcycle_222682222#1_198876042#0_00072a0d" type="motorcycle" begin="0" end="3600" vehsPerHour="104.14" departLane="best" departPos="random" departSpeed="0" from="222682222#1" to="198876042#0"/>
  <flow id="car_193253433#2_198876043#0_00072a0d" type="car" begin="0" end="3600" vehsPerHour="42.02" departLane="best" departPos="random" departSpeed="0" from="193253433#2" to="198876043#0"/>
  <flow id="car_193253433#2_28231434_00072a0d" type="car" begin="0" end="3600" vehsPerHour="34.61" departLane="best" departPos="random" departSpeed="0" from="193253433#2" to="28231434"/>
  <flow id="car_193253433#2_23241821#0_00072a0d" type="car" begin="0" end="3600" vehsPerHour="32.20" departLane="best" departPos="random" departSpeed="0" from="193253433#2" to="23241821#0"/>
  <flow id="car_193253433#2_198876042#0_00072a0d" type="car" begin="0" end="3600" vehsPerHour="26.35" departLane="best" departPos="random" departSpeed="0" from="193253433#2" to="198876042#0"/>
  <flow id="car_193253433#2_193253427#0_00072a0d" type="car" begin="0" end="3600" vehsPerHour="24.02" departLane="best" departPos="random" departSpeed="0" from="193253433#2" to="193253427#0"/>
  <flow id="motorcycle_193253433#2_198876043#0_00072a0d" type="motorcycle" begin="0" end="3600" vehsPerHour="115.54" departLane="best" departPos="random" departSpeed="0" from="193253433#2" to="198876043#0"/>
  <flow id="motorcycle_193253433#2_28231434_00072a0d" type="motorcycle" begin="0" end="3600" vehsPerHour="105.64" departLane="best" departPos="random" departSpeed="0" from="193253433#2" to="28231434"/>
  <flow id="motorcycle_193253433#2_23241821#0_00072a0d" type="motorcycle" begin="0" end="3600" vehsPerHour="90.11" departLane="best" departPos="random" departSpeed="0" from="193253433#2" to="23241821#0"/>
  <flow id="motorcycle_193253433#2_198876042#0_00072a0d" type="motorcycle" begin="0" end="3600" vehsPerHour="80.56" departLane="best" departPos="random" departSpeed="0" from="193253433#2" to="198876042#0"/>
  <flow id="motorcycle_193253433#2_193253427#0_00072a0d" type="motorcycle" begin="0" end="3600" vehsPerHour="68.84" departLane="best" departPos="random" departSpeed="0" from="193253433#2" to="193253427#0"/>
  <flow id="car_198876045#1_28231434_00072a0d" type="car" begin="0" end="3600" vehsPerHour="35.18" departLane="best" departPos="random" departSpeed="0" from="198876045#1" to="28231434"/>
  <flow id="car_198876045#1_23241821#0_00072a0d" type="car" begin="0" end="3600" vehsPerHour="30.50" departLane="best" departPos="random" departSpeed="0" from="198876045#1" to="23241821#0"/>
  <flow id="car_198876045#1_198876042#0_00072a0d" type="car" begin="0" end="3600" vehsPerHour="26.68" departLane="best" departPos="random" departSpeed="0" from="198876045#1" to="198876042#0"/>
  <flow id="car_198876045#1_193253427#0_00072a0d" type="car" begin="0" end="3600" vehsPerHour="23.56" departLane="best" departPos="random" departSpeed="0" from="198876045#1" to="193253427#0"/>
  <flow id="car_198876045#1_198876043#2_00072a0d" type="car" begin="0" end="3600" vehsPerHour="20.07" departLane="best" departPos="random" departSpeed="0" from="198876045#1" to="198876043#2"/>
  <flow id="motorcycle_198876045#1_28231434_00072a0d" type="motorcycle" begin="0" end="3600" vehsPerHour="102.44" departLane="best" departPos="random" departSpeed="0" from="198876045#1" to="28231434"/>
  <flow id="motorcycle_198876045#1_23241821#0_00072a0d" type="motorcycle" begin="0" end="3600" vehsPerHour="87.13" departLane="best" departPos="random" departSpeed="0" from="198876045#1" to="23241821#0"/>
  <flow id="motorcycle_198876045#1_198876042#0_00072a0d" type="motorcycle" begin="0" end="3600" vehsPerHour="84.04" departLane="best" departPos="random" departSpeed="0" from="198876045#1" to="198876042#0"/>
  <flow id="motorcycle_198876045#1_193253427#0_00072a0d" type="motorcycle" begin="0" end="3600" vehsPerHour="76.32" departLane="best" departPos="random" departSpeed="0" from="198876045#1" to="193253427#0"/>
  <flow id="motorcycle_198876045#1_198876043#2_00072a0d" type="motorcycle" begin="0" end="3600" vehsPerHour="66.82" departLane="best" departPos="random" departSpeed="0" from="198876045#1" to="198876043#2"/>
  <flow id="car_-28231434_23241821#0_00072a0d" type="car" begin="0" end="3600" vehsPerHour="23.21" departLane="best" departPos="random" departSpeed="0" from="-28231434" to="23241821#0"/>
  <flow id="car_-28231434_198876042#0_00072a0d" type="car" begin="0" end="3600" vehsPerHour="20.71" departLane="best" departPos="random" departSpeed="0" from="-28231434" to="198876042#0"/>
  <flow id="car_-28231434_193253427#0_00072a0d" type="car" begin="0" end="3600" vehsPerHour="16.37" departLane="best" departPos="random" departSpeed="0" from="-28231434" to="193253427#0"/>
  <flow id="car_-28231434_198876043#2_00072a0d" type="car" begin="0" end="3600" vehsPerHour="17.43" departLane="best" departPos="random" departSpeed="0" from="-28231434" to="198876043#2"/>
  <flow id="car_-28231434_28231434_00072a0d" type="car" begin="0" end="3600" vehsPerHour="13.96" departLane="best" departPos="random" departSpeed="0" from="-28231434" to="28231434"/>
  <flow id="motorcycle_-28231434_23241821#0_00072a0d" type="motorcycle" begin="0" end="3600" vehsPerHour="68.49" departLane="best" departPos="random" departSpeed="0" from="-28231434" to="23241821#0"/>
  <flow id="motorcycle_-28231434_198876042#0_00072a0d" type="motorcycle" begin="0" end="3600" vehsPerHour="62.09" departLane="best" departPos="random" departSpeed="0" from="-28231434" to="198876042#0"/>
  <flow id="motorcycle_-28231434_193253427#0_00072a0d" type="motorcycle" begin="0" end="3600" vehsPerHour="56.19" departLane="best" departPos="random" departSpeed="0" from="-28231434" to="193253427#0"/>
  <flow id="motorcycle_-28231434_198876043#2_00072a0d" type="motorcycle" begin="0" end="3600" vehsPerHour="46.00" departLane="best" departPos="random" departSpeed="0" from="-28231434" to="198876043#2"/>
  <flow id="motorcycle_-28231434_28231434_00072a0d" type="motorcycle" begin="0" end="3600" vehsPerHour="41.75" departLane="best" departPos="random" departSpeed="0" from="-28231434" to="28231434"/>
  <flow id="car_-55029244#0_198876042#0_00072a0d" type="car" begin="0" end="3600" vehsPerHour="28.30" departLane="best" departPos="random" departSpeed="0" from="-55029244#0" to="198876042#0"/>
  <flow id="car_-55029244#0_193253427#0_00072a0d" type="car" begin="0" end="3600" vehsPerHour="23.62" departLane="best" departPos="random" departSpeed="0" from="-55029244#0" to="193253427#0"/>
  <flow id="car_-55029244#0_198876043#2_00072a0d" type="car" begin="0" end="3600" vehsPerHour="21.09" departLane="best" departPos="random" departSpeed="0" from="-55029244#0" to="198876043#2"/>
  <flow id="car_-55029244#0_28231434_00072a0d" type="car" begin="0" end="3600" vehsPerHour="16.70" departLane="best" departPos="random" departSpeed="0" from="-55029244#0" to="28231434"/>
  <flow id="car_-55029244#0_23241821#0_00072a0d" type="car" begin="0" end="3600" vehsPerHour="13.80" departLane="best" departPos="random" departSpeed="0" from="-55029244#0" to="23241821#0"/>
  <flow id="motorcycle_-55029244#0_198876042#0_00072a0d" type="motorcycle" begin="0" end="3600" vehsPerHour="84.42" departLane="best" departPos="random" departSpeed="0" from="-55029244#0" to="198876042#0"/>
  <flow id="motorcycle_-55029244#0_193253427#0_00072a0d" type="motorcycle" begin="0" end="3600" vehsPerHour="69.53" departLane="best" departPos="random" departSpeed="0" from="-55029244#0" to="193253427#0"/>
  <flow id="motorcycle_-55029244#0_198876043#2_00072a0d" type="motorcycle" begin="0" end="3600" vehsPerHour="62.98" departLane="best" departPos="random" departSpeed="0" from="-55029244#0" to="198876043#2"/>
  <flow id="motorcycle_-55029244#0_28231434_00072a0d" type="motorcycle" begin="0" end="3600" vehsPerHour="55.60" departLane="best" departPos="random" departSpeed="0" from="-55029244#0" to="28231434"/>
  <flow id="motorcycle_-55029244#0_23241821#0_00072a0d" type="motorcycle" begin="0" end="3600" vehsPerHour="49.10" departLane="best" departPos="random" departSpeed="0" from="-55029244#0" to="23241821#0"/>
  <flow id="car_34241530#0_198876042#0_00072a0d" type="car" begin="0" end="3600" vehsPerHour="26.14" departLane="best" departPos="random" departSpeed="0" from="34241530#0" to="198876042#0"/>
  <flow id="car_34241530#0_193253427#0_00072a0d" type="car" begin="0" end="3600" vehsPerHour="24.52" departLane="best" departPos="random" departSpeed="0" from="34241530#0" to="193253427#0"/>
  <flow id="car_34241530#0_198876043#2_00072a0d" type="car" begin="0" end="3600" vehsPerHour="19.88" departLane="best" departPos="random" departSpeed="0" from="34241530#0" to="198876043#2"/>
  <flow id="car_34241530#0_28231434_00072a0d" type="car" begin="0" end="3600" vehsPerHour="17.00" departLane="best" departPos="random" departSpeed="0" from="34241530#0" to="28231434"/>
  <flow id="car_34241530#0_23241821#0_00072a0d" type="car" begin="0" end="3600" vehsPerHour="13.21" departLane="best" departPos="random" departSpeed="0" from="34241530#0" to="23241821#0"/>
  <flow id="motorcycle_34241530#0_198876042#0_00072a0d" type="motorcycle" begin="0" end="3600" vehsPerHour="82.65" departLane="best" departPos="random" departSpeed="0" from="34241530#0" to="198876042#0"/>
  <flow id="motorcycle_34241530#0_193253427#0_00072a0d" type="motorcycle" begin="0" end="3600" vehsPerHour="66.03" departLane="best" departPos="random" departSpeed="0" from="34241530#0" to="193253427#0"/>
  <flow id="motorcycle_34241530#0_198876043#2_00072a0d" type="motorcycle" begin="0" end="3600" vehsPerHour="63.33" departLane="best" departPos="random" departSpeed="0" from="34241530#0" to="198876043#2"/>
  <flow id="motorcycle_34241530#0_28231434_00072a0d" type="motorcycle" begin="0" end="3600" vehsPerHour="54.68" departLane="best" departPos="random" departSpeed="0" from="34241530#0" to="28231434"/>
  <flow id="motorcycle_34241530#0_23241821#0_00072a0d" type="motorcycle" begin="0" end="3600" vehsPerHour="47.61" departLane="best" departPos="random" departSpeed="0" from="34241530#0" to="23241821#0"/>
  <flow id="truck_34241530#0_198876042#0_00072a0d" type="truck" begin="0" end="3600" vehsPerHour="11.61" departLane="best" departPos="random" departSpeed="0" from="34241530#0" to="198876042#0"/>
</routes>
