<routes>
<vType id="car" vClass="passenger" accel="2.6" decel="4.5" sigma="0.5" length="5.0" maxSpeed="13.9"/>
<vType id="motorcycle" vClass="motorcycle" accel="3.0" decel="5.0" sigma="0.5" length="2.0" maxSpeed="14.0"/>
<vType id="truck" vClass="truck" accel="1.2" decel="3.5" sigma="0.5" length="12.0" maxSpeed="10.0"/>

  <flow id="car_222682222#1_193253427#0_0007d698" type="car" begin="0" end="3600" vehsPerHour="61.87" departLane="best" departPos="random" departSpeed="0" from="222682222#1" to="193253427#0"/>
  <flow id="car_222682222#1_198876043#0_0007d698" type="car" begin="0" end="3600" vehsPerHour="52.75" departLane="best" departPos="random" departSpeed="0" from="222682222#1" to="198876043#0"/>
  <flow id="car_222682222#1_28231434_0007d698" type="car" begin="0" end="3600" vehsPerHour="51.44" departLane="best" departPos="random" departSpeed="0" from="222682222#1" to="28231434"/>
  <flow id="car_222682222#1_23241821#0_0007d698" type="car" begin="0" end="3600" vehsPerHour="40.37" departLane="best" departPos="random" departSpeed="0" from="222682222#1" to="23241821#0"/>
  <flow id="car_222682222#1_198876042#0_0007d698" type="car" begin="0" end="3600" vehsPerHour="33.18" departLane="best" departPos="random" departSpeed="0" from="222682222#1" to="198876042#0"/>
  <flow id="motorcycle_222682222#1_193253427#0_0007d698" type="motorcycle" begin="0" end="3600" vehsPerHour="176.95" departLane="best" departPos="random" departSpeed="0" from="222682222#1" to="193253427#0"/>
  <flow id="motorcycle_222682222#1_198876043#0_0007d698" type="motorcycle" begin="0" end="3600" vehsPerHour="156.63" departLane="best" departPos="random" departSpeed="0" from="222682222#1" to="198876043#0"/>
  <flow id="motorcycle_222682222#1_28231434_0007d698" type="motorcycle" begin="0" end="3600" vehsPerHour="146.46" departLane="best" departPos="random" departSpeed="0" from="222682222#1" to="28231434"/>
  <flow id="motorcycle_222682222#1_23241821#0_0007d698" type="motorcycle" begin="0" end="3600" vehsPerHour="116.79" departLane="best" departPos="random" departSpeed="0" from="222682222#1" to="23241821#0"/>
  <flow id="motorcycle_222682222#1_198876042#0_0007d698" type="motorcycle" begin="0" end="3600" vehsPerHour="102.19" departLane="best" departPos="random" departSpeed="0" from="222682222#1" to="198876042#0"/>
  <flow id="car_193253433#2_198876043#0_0007d698" type="car" begin="0" end="3600" vehsPerHour="38.94" departLane="best" departPos="random" departSpeed="0" from="193253433#2" to="198876043#0"/>
  <flow id="car_193253433#2_28231434_0007d698" type="car" begin="0" end="3600" vehsPerHour="35.06" departLane="best" departPos="random" departSpeed="0" from="193253433#2" to="28231434"/>
  <flow id="car_193253433#2_23241821#0_0007d698" type="car" begin="0" end="3600" vehsPerHour="34.67" departLane="best" departPos="random" departSpeed="0" from="193253433#2" to="23241821#0"/>
  <flow id="car_193253433#2_198876042#0_0007d698" type="car" begin="0" end="3600" vehsPerHour="27.03" departLane="best" departPos="random" departSpeed="0" from="193253433#2" to="198876042#0"/>
  <flow id="car_193253433#2_193253427#0_0007d698" type="car" begin="0" end="3600" vehsPerHour="23.43" departLane="best" departPos="random" departSpeed="0" from="193253433#2" to="193253427#0"/>
  <flow id="motorcycle_193253433#2_198876043#0_0007d698" type="motorcycle" begin="0" end="3600" vehsPerHour="110.78" departLane="best" departPos="random" departSpeed="0" from="193253433#2" to="198876043#0"/>
  <flow id="motorcycle_193253433#2_28231434_0007d698" type="motorcycle" begin="0" end="3600" vehsPerHour="101.34" departLane="best" departPos="random" departSpeed="0" from="193253433#2" to="28231434"/>
  <flow id="motorcycle_193253433#2_23241821#0_0007d698" type="motorcycle" begin="0" end="3600" vehsPerHour="92.92" departLane="best" departPos="random" departSpeed="0" from="193253433#2" to="23241821#0"/>
  <flow id="motorcycle_193253433#2_198876042#0_0007d698" type="motorcycle" begin="0" end="3600" vehsPerHour="84.00" departLane="best" departPos="random" departSpeed="0" from="193253433#2" to="198876042#0"/>
  <flow id="motorcycle_193253433#2_193253427#0_0007d698" type="motorcycle" begin="0" end="3600" vehsPerHour="65.87" departLane="best" departPos="random" departSpeed="0" from="193253433#2" to="193253427#0"/>
  <flow id="car_198876045#1_28231434_0007d698" type="car" begin="0" end="3600" vehsPerHour="34.51" departLane="best" departPos="random" departSpeed="0" from="198876045#1" to="28231434"/>
  <flow id="car_198876045#1_23241821#0_0007d698" type="car" begin="0" end="3600" vehsPerHour="31.21" departLane="best" departPos="random" departSpeed="0" from="198876045#1" to="23241821#0"/>
  <flow id="car_198876045#1_198876042#0_0007d698" type="car" begin="0" end="3600" vehsPerHour="27.08" departLane="best" departPos="random" departSpeed="0" from="198876045#1" to="198876042#0"/>
  <flow id="car_198876045#1_193253427#0_0007d698" type="car" begin="0" end="3600" vehsPerHour="23.58" departLane="best" departPos="random" departSpeed="0" from="198876045#1" to="193253427#0"/>
  <flow id="car_198876045#1_198876043#2_0007d698" type="car" begin="0" end="3600" vehsPerHour="20.89" departLane="best" departPos="random" departSpeed="0" from="198876045#1" to="198876043#2"/>
  <flow id="motorcycle_198876045#1_28231434_0007d698" type="motorcycle" begin="0" end="3600" vehsPerHour="99.92" departLane="best" departPos="random" departSpeed="0" from="198876045#1" to="28231434"/>
  <flow id="motorcycle_198876045#1_23241821#0_0007d698" type="motorcycle" begin="0" end="3600" vehsPerHour="87.89" departLane="best" departPos="random" departSpeed="0" from="198876045#1" to="23241821#0"/>
  <flow id="motorcycle_198876045#1_198876042#0_0007d698" type="motorcycle" begin="0" end="3600" vehsPerHour="80.36" departLane="best" departPos="random" departSpeed="0" from="198876045#1" to="198876042#0"/>
  <flow id="motorcycle_198876045#1_193253427#0_0007d698" type="motorcycle" begin="0" end="3600" vehsPerHour="77.19" departLane="best" departPos="random" departSpeed="0" from="198876045#1" to="193253427#0"/>
  <flow id="motorcycle_198876045#1_198876043#2_0007d698" type="motorcycle" begin="0" end="3600" vehsPerHour="67.79" departLane="best" departPos="random" departSpeed="0" from="198876045#1" to="198876043#2"/>
  <flow id="car_-28231434_23241821#0_0007d698" type="car" begin="0" end="3600" vehsPerHour="24.34" departLane="best" departPos="random" departSpeed="0" from="-28231434" to="23241821#0"/>
  <flow id="car_-28231434_198876042#0_0007d698" type="car" begin="0" end="3600" vehsPerHour="19.26" departLane="best" departPos="random" departSpeed="0" from="-28231434" to="198876042#0"/>
  <flow id="car_-28231434_193253427#0_0007d698" type="car" begin="0" end="3600" vehsPerHour="16.88" departLane="best" departPos="random" departSpeed="0" from="-28231434" to="193253427#0"/>
  <flow id="car_-28231434_198876043#2_0007d698" type="car" begin="0" end="3600" vehsPerHour="16.25" departLane="best" departPos="random" departSpeed="0" from="-28231434" to="198876043#2"/>
  <flow id="car_-28231434_28231434_0007d698" type="car" begin="0" end="3600" vehsPerHour="13.89" departLane="best" departPos="random" departSpeed="0" from="-28231434" to="28231434"/>
  <flow id="motorcycle_-28231434_23241821#0_0007d698" type="motorcycle" begin="0" end="3600" vehsPerHour="68.45" departLane="best" departPos="random" departSpeed="0" from="-28231434" to="23241821#0"/>
  <flow id="motorcycle_-28231434_198876042#0_0007d698" type="motorcycle" begin="0" end="3600" vehsPerHour="58.84" departLane="best" departPos="random" departSpeed="0" from="-28231434" to="198876042#0"/>
  <flow id="motorcycle_-28231434_193253427#0_0007d698" type="motorcycle" begin="0" end="3600" vehsPerHour="52.25" departLane="best" departPos="random" departSpeed="0" from="-28231434" to="193253427#0"/>
  <flow id="motorcycle_-28231434_198876043#2_0007d698" type="motorcycle" begin="0" end="3600" vehsPerHour="44.94" departLane="best" departPos="random" departSpeed="0" from="-28231434" to="198876043#2"/>
  <flow id="motorcycle_-28231434_28231434_0007d698" type="motorcycle" begin="0" end="3600" vehsPerHour="42.41" departLane="best" departPos="random" departSpeed="0" from="-28231434" to="28231434"/>
  <flow id="car_-55029244#0_198876042#0_0007d698" type="car" begin="0" end="3600" vehsPerHour="26.85" departLane="best" departPos="random" departSpeed="0" from="-55029244#0" to="198876042#0"/>
  <flow id="car_-55029244#0_193253427#0_0007d698" type="car" begin="0" end="3600" vehsPerHour="22.75" departLane="best" departPos="random" departSpeed="0" from="-55029244#0" to="193253427#0"/>
  <flow id="car_-55029244#0_198876043#2_0007d698" type="car" begin="0" end="3600" vehsPerHour="20.45" departLane="best" departPos="random" departSpeed="0" from="-55029244#0" to="198876043#2"/>
  <flow id="car_-55029244#0_28231434_0007d698" type="car" begin="0" end="3600" vehsPerHour="17.35" departLane="best" departPos="random" departSpeed="0" from="-55029244#0" to="28231434"/>
  <flow id="car_-55029244#0_23241821#0_0007d698" type="car" begin="0" end="3600" vehsPerHour="13.29" departLane="best" departPos="random" departSpeed="0" from="-55029244#0" to="23241821#0"/>
  <flow id="motorcycle_-55029244#0_198876042#0_0007d698" type="motorcycle" begin="0" end="3600" vehsPerHour="77.53" departLane="best" departPos="random" departSpeed="0" from="-55029244#0" to="198876042#0"/>
  <flow id="motorcycle_-55029244#0_193253427#0_0007d698" type="motorcycle" begin="0" end="3600" vehsPerHour="68.25" departLane="best" departPos="random" departSpeed="0" from="-55029244#0" to="193253427#0"/>
  <flow id="motorcycle_-55029244#0_198876043#2_0007d698" type="motorcycle" begin="0" end="3600" vehsPerHour="58.79" departLane="best" departPos="random" departSpeed="0" from="-55029244#0" to="198876043#2"/>
  <flow id="motorcycle_-55029244#0_28231434_0007d698" type="motorcycle" begin="0" end="3600" vehsPerHour="54.40" departLane="best" departPos="random" departSpeed="0" from="-55029244#0" to="28231434"/>
  <flow id="motorcycle_-55029244#0_23241821#0_0007d698" type="motorcycle" begin="0" end="3600" vehsPerHour="46.88" departLane="best" departPos="random" departSpeed="0" from="-55029244#0" to="23241821#0"/>
  <flow id="car_34241530#0_198876042#0_0007d698" type="car" begin="0" end="3600" vehsPerHour="26.94" departLane="best" departPos="random" departSpeed="0" from="34241530#0" to="198876042#0"/>
  <flow id="car_34241530#0_193253427#0_0007d698" type="car" begin="0" end="3600" vehsPerHour="24.28" departLane="best" departPos="random" departSpeed="0" from="34241530#0" to="193253427#0"/>
  <flow id="car_34241530#0_198876043#2_0007d698" type="car" begin="0" end="3600" vehsPerHour="21.05" departLane="best" departPos="random" departSpeed="0" from="34241530#0" to="198876043#2"/>
  <flow id="car_34241530#0_28231434_0007d698" type="car" begin="0" end="3600" vehsPerHour="16.04" departLane="best" departPos="random" departSpeed="0" from="34241530#0" to="28231434"/>
  <flow id="car_34241530#0_23241821#0_0007d698" type="car" begin="0" end="3600" vehsPerHour="14.01" departLane="best" departPos="random" departSpeed="0" from="34241530#0" to="23241821#0"/>
  <flow id="motorcycle_34241530#0_198876042#0_0007d698" type="motorcycle" begin="0" end="3600" vehsPerHour="78.54" departLane="best" departPos="random" departSpeed="0" from="34241530#0" to="198876042#0"/>
  <flow id="motorcycle_34241530#0_193253427#0_0007d698" type="motorcycle" begin="0" end="3600" vehsPerHour="66.69" departLane="best" departPos="random" departSpeed="0" from="34241530#0" to="193253427#0"/>
  <flow id="motorcycle_34241530#0_198876043#2_0007d698" type="motorcycle" begin="0" end="3600" vehsPerHour="63.30" departLane="best" departPos="random" departSpeed="0" from="34241530#0" to="198876043#2"/>
  <flow id="motorcycle_34241530#0_28231434_0007d698" type="motorcycle" begin="0" end="3600" vehsPerHour="53.65" departLane="best" departPos="random" departSpeed="0" from="34241530#0" to="28231434"/>
  <flow id="motorcycle_34241530#0_23241821#0_0007d698" type="motorcycle" begin="0" end="3600" vehsPerHour="46.66" departLane="best" departPos="random" departSpeed="0" from="34241530#0" to="23241821#0"/>
  <flow id="truck_34241530#0_198876042#0_0007d698" type="truck" begin="0" end="3600" vehsPerHour="11.31" departLane="best" departPos="random" departSpeed="0" from="34241530#0" to="198876042#0"/>
</routes>
