<routes>
<vType id="car" vClass="passenger" accel="2.6" decel="4.5" sigma="0.5" length="5.0" maxSpeed="13.9"/>
<vType id="motorcycle" vClass="motorcycle" accel="3.0" decel="5.0" sigma="0.5" length="2.0" maxSpeed="14.0"/>
<vType id="truck" vClass="truck" accel="1.2" decel="3.5" sigma="0.5" length="12.0" maxSpeed="10.0"/>

  <flow id="car_222682222#1_193253427#0_0000e3f9" type="car" begin="0" end="3600" vehsPerHour="63.09" departLane="best" departPos="random" departSpeed="0" from="222682222#1" to="193253427#0"/>
  <flow id="car_222682222#1_198876043#0_0000e3f9" type="car" begin="0" end="3600" vehsPerHour="50.58" departLane="best" departPos="random" departSpeed="0" from="222682222#1" to="198876043#0"/>
  <flow id="car_222682222#1_28231434_0000e3f9" type="car" begin="0" end="3600" vehsPerHour="51.39" departLane="best" departPos="random" departSpeed="0" from="222682222#1" to="28231434"/>
  <flow id="car_222682222#1_23241821#0_0000e3f9" type="car" begin="0" end="3600" vehsPerHour="40.55" departLane="best" departPos="random" departSpeed="0" from="222682222#1" to="23241821#0"/>
  <flow id="car_222682222#1_198876042#0_0000e3f9" type="car" begin="0" end="3600" vehsPerHour="32.43" departLane="best" departPos="random" departSpeed="0" from="222682222#1" to="198876042#0"/>
  <flow id="motorcycle_222682222#1_193253427#0_0000e3f9" type="motorcycle" begin="0" end="3600" vehsPerHour="173.63" departLane="best" departPos="random" departSpeed="0" from="222682222#1" to="193253427#0"/>
  <flow id="motorcycle_222682222#1_198876043#0_0000e3f9" type="motorcycle" begin="0" end="3600" vehsPerHour="161.39" departLane="best" departPos="random" departSpeed="0" from="222682222#1" to="198876043#0"/>
  <flow id="motorcycle_222682222#1_28231434_0000e3f9" type="motorcycle" begin="0" end="3600" vehsPerHour="139.49" departLane="best" departPos="random" departSpeed="0" from="222682222#1" to="28231434"/>
  <flow id="motorcycle_222682222#1_23241821#0_0000e3f9" type="motorcycle" begin="0" end="3600" vehsPerHour="117.16" departLane="best" departPos="random" departSpeed="0" from="222682222#1" to="23241821#0"/>
  <flow id="motorcycle_222682222#1_198876042#0_0000e3f9" type="motorcycle" begin="0" end="3600" vehsPerHour="100.89" departLane="best" departPos="random" departSpeed="0" from="222682222#1" to="198876042#0"/>
  <flow id="car_193253433#2_198876043#0_0000e3f9" type="car" begin="0" end="3600" vehsPerHour="38.64" departLane="best" departPos="random" departSpeed="0" from="193253433#2" to="198876043#0"/>
  <flow id="car_193253433#2_28231434_0000e3f9" type="car" begin="0" end="3600" vehsPerHour="35.22" departLane="best" departPos="random" departSpeed="0" from="193253433#2" to="28231434"/>
  <flow id="car_193253433#2_23241821#0_0000e3f9" type="car" begin="0" end="3600" vehsPerHour="33.72" departLane="best" departPos="random" departSpeed="0" from="193253433#2" to="23241821#0"/>
  <flow id="car_193253433#2_198876042#0_0000e3f9" type="car" begin="0" end="3600" vehsPerHour="26.75" departLane="best" departPos="random" departSpeed="0" from="193253433#2" to="198876042#0"/>
  <flow id="car_193253433#2_193253427#0_0000e3f9" type="car" begin="0" end="3600" vehsPerHour="22.77" departLane="best" departPos="random" departSpeed="0" from="193253433#2" to="193253427#0"/>
  <flow id="motorcycle_193253433#2_198876043#0_0000e3f9" type="motorcycle" begin="0" end="3600" vehsPerHour="111.42" departLane="best" departPos="random" departSpeed="0" from="193253433#2" to="198876043#0"/>
  <flow id="motorcycle_193253433#2_28231434_0000e3f9" type="motorcycle" begin="0" end="3600" vehsPerHour="97.87" departLane="best" departPos="random" departSpeed="0" from="193253433#2" to="28231434"/>
  <flow id="motorcycle_193253433#2_23241821#0_0000e3f9" type="motorcycle" begin="0" end="3600" vehsPerHour="90.44" departLane="best" departPos="random" departSpeed="0" from="193253433#2" to="23241821#0"/>
  <flow id="motorcycle_193253433#2_198876042#0_0000e3f9" type="motorcycle" begin="0" end="3600" vehsPerHour="82.24" departLane="best" departPos="random" departSpeed="0" from="193253433#2" to="198876042#0"/>
  <flow id="motorcycle_193253433#2_193253427#0_0000e3f9" type="motorcycle" begin="0" end="3600" vehsPerHour="69.46" departLane="best" departPos="random" departSpeed="0" from="193253433#2" to="193253427#0"/>
  <flow id="car_198876045#1_28231434_0000e3f9" type="car" begin="0" end="3600" vehsPerHour="32.20" departLane="best" departPos="random" departSpeed="0" from="198876045#1" to="28231434"/>
  <flow id="car_198876045#1_23241821#0_0000e3f9" type="car" begin="0" end="3600" vehsPerHour="28.93" departLane="best" departPos="random" departSpeed="0" from="198876045#1" to="23241821#0"/>
  <flow id="car_198876045#1_198876042#0_0000e3f9" type="car" begin="0" end="3600" vehsPerHour="26.47" departLane="best" departPos="random" departSpeed="0" from="198876045#1" to="198876042#0"/>
  <flow id="car_198876045#1_193253427#0_0000e3f9" type="car" begin="0" end="3600" vehsPerHour="22.95" departLane="best" departPos="random" departSpeed="0" from="198876045#1" to="193253427#0"/>
  <flow id="car_198876045#1_198876043#2_0000e3f9" type="car" begin="0" end="3600" vehsPerHour="20.77" departLane="best" departPos="random" departSpeed="0" from="198876045#1" to="198876043#2"/>
  <flow id="motorcycle_198876045#1_28231434_0000e3f9" type="motorcycle" begin="0" end="3600" vehsPerHour="102.88" departLane="best" departPos="random" departSpeed="0" from="198876045#1" to="28231434"/>
  <flow id="motorcycle_198876045#1_23241821#0_0000e3f9" type="motorcycle" begin="0" end="3600" vehsPerHour="88.73" departLane="best" departPos="random" departSpeed="0" from="198876045#1" to="23241821#0"/>
  <flow id="motorcycle_198876045#1_198876042#0_0000e3f9" type="motorcycle" begin="0" end="3600" vehsPerHour="84.05" departLane="best" departPos="random" departSpeed="0" from="198876045#1" to="198876042#0"/>
  <flow id="motorcycle_198876045#1_193253427#0_0000e3f9" type="motorcycle" begin="0" end="3600" vehsPerHour="76.68" departLane="best" departPos="random" departSpeed="0" from="198876045#1" to="193253427#0"/>
  <flow id="motorcycle_198876045#1_198876043#2_0000e3f9" type="motorcycle" begin="0" end="3600" vehsPerHour="66.47" departLane="best" departPos="random" departSpeed="0" from="198876045#1" to="198876043#2"/>
  <flow id="car_-28231434_23241821#0_0000e3f9" type="car" begin="0" end="3600" vehsPerHour="24.07" departLane="best" departPos="random" departSpeed="0" from="-28231434" to="23241821#0"/>
  <flow id="car_-28231434_198876042#0_0000e3f9" type="car" begin="0" end="3600" vehsPerHour="20.60" departLane="best" departPos="random" departSpeed="0" from="-28231434" to="198876042#0"/>
  <flow id="car_-28231434_193253427#0_0000e3f9" type="car" begin="0" end="3600" vehsPerHour="17.04" departLane="best" departPos="random" departSpeed="0" from="-28231434" to="193253427#0"/>
  <flow id="car_-28231434_198876043#2_0000e3f9" type="car" begin="0" end="3600" vehsPerHour="16.03" departLane="best" departPos="random" departSpeed="0" from="-28231434" to="198876043#2"/>
  <flow id="car_-28231434_28231434_0000e3f9" type="car" begin="0" end="3600" vehsPerHour="13.84" departLane="best" departPos="random" departSpeed="0" from="-28231434" to="28231434"/>
  <flow id="motorcycle_-28231434_23241821#0_0000e3f9" type="motorcycle" begin="0" end="3600" vehsPerHour="64.68" departLane="best" departPos="random" departSpeed="0" from="-28231434" to="23241821#0"/>
  <flow id="motorcycle_-28231434_198876042#0_0000e3f9" type="motorcycle" begin="0" end="3600" vehsPerHour="62.32" departLane="best" departPos="random" departSpeed="0" from="-28231434" to="198876042#0"/>
  <flow id="motorcycle_-28231434_193253427#0_0000e3f9" type="motorcycle" begin="0" end="3600" vehsPerHour="56.56" departLane="best" departPos="random" departSpeed="0" from="-28231434" to="193253427#0"/>
  <flow id="motorcycle_-28231434_198876043#2_0000e3f9" type="motorcycle" begin="0" end="3600" vehsPerHour="48.63" departLane="best" departPos="random" departSpeed="0" from="-28231434" to="198876043#2"/>
  <flow id="motorcycle_-28231434_28231434_0000e3f9" type="motorcycle" begin="0" end="3600" vehsPerHour="39.74" departLane="best" departPos="random" departSpeed="0" from="-28231434" to="28231434"/>
  <flow id="car_-55029244#0_198876042#0_0000e3f9" type="car" begin="0" end="3600" vehsPerHour="26.80" departLane="best" departPos="random" departSpeed="0" from="-55029244#0" to="198876042#0"/>
  <flow id="car_-55029244#0_193253427#0_0000e3f9" type="car" begin="0" end="3600" vehsPerHour="23.38" departLane="best" departPos="random" departSpeed="0" from="-55029244#0" to="193253427#0"/>
  <flow id="car_-55029244#0_198876043#2_0000e3f9" type="car" begin="0" end="3600" vehsPerHour="19.77" departLane="best" departPos="random" departSpeed="0" from="-55029244#0" to="198876043#2"/>
  <flow id="car_-55029244#0_28231434_0000e3f9" type="car" begin="0" end="3600" vehsPerHour="17.35" departLane="best" departPos="random" departSpeed="0" from="-55029244#0" to="28231434"/>
  <flow id="car_-55029244#0_23241821#0_0000e3f9" type="car" begin="0" end="3600" vehsPerHour="13.94" departLane="best" departPos="random" departSpeed="0" from="-55029244#0" to="23241821#0"/>
  <flow id="motorcycle_-55029244#0_198876042#0_0000e3f9" type="motorcycle" begin="0" end="3600" vehsPerHour="77.71" departLane="best" departPos="random" departSpeed="0" from="-55029244#0" to="198876042#0"/>
  <flow id="motorcycle_-55029244#0_193253427#0_0000e3f9" type="motorcycle" begin="0" end="3600" vehsPerHour="67.74" departLane="best" departPos="random" departSpeed="0" from="-55029244#0" to="193253427#0"/>
  <flow id="motorcycle_-55029244#0_198876043#2_0000e3f9" type="motorcycle" begin="0" end="3600" vehsPerHour="58.39" departLane="best" departPos="random" departSpeed="0" from="-55029244#0" to="198876043#2"/>
  <flow id="motorcycle_-55029244#0_28231434_0000e3f9" type="motorcycle" begin="0" end="3600" vehsPerHour="52.85" departLane="best" departPos="random" departSpeed="0" from="-55029244#0" to="28231434"/>
  <flow id="motorcycle_-55029244#0_23241821#0_0000e3f9" type="motorcycle" begin="0" end="3600" vehsPerHour="47.67" departLane="best" departPos="random" departSpeed="0" from="-55029244#0" to="23241821#0"/>
  <flow id="car_34241530#0_198876042#0_0000e3f9" type="car" begin="0" end="3600" vehsPerHour="26.02" departLane="best" departPos="random" departSpeed="0" from="34241530#0" to="198876042#0"/>
  <flow id="car_34241530#0_193253427#0_0000e3f9" type="car" begin="0" end="3600" vehsPerHour="24.31" departLane="best" departPos="random" departSpeed="0" from="34241530#0" to="193253427#0"/>
  <flow id="car_34241530#0_198876043#2_0000e3f9" type="car" begin="0" end="3600" vehsPerHour="20.88" departLane="best" departPos="random" departSpeed="0" from="34241530#0" to="198876043#2"/>
  <flow id="car_34241530#0_28231434_0000e3f9" type="car" begin="0" end="3600" vehsPerHour="16.39" departLane="best" departPos="random" departSpeed="0" from="34241530#0" to="28231434"/>
  <flow id="car_34241530#0_23241821#0_0000e3f9" type="car" begin="0" end="3600" vehsPerHour="13.77" departLane="best" departPos="random" departSpeed="0" from="34241530#0" to="23241821#0"/>
  <flow id="motorcycle_34241530#0_198876042#0_0000e3f9" type="motorcycle" begin="0" end="3600" vehsPerHour="79.92" departLane="best" departPos="random" departSpeed="0" from="34241530#0" to="198876042#0"/>
  <flow id="motorcycle_34241530#0_193253427#0_0000e3f9" type="motorcycle" begin="0" end="3600" vehsPerHour="65.20" departLane="best" departPos="random" departSpeed="0" from="34241530#0" to="193253427#0"/>
  <flow id="motorcycle_34241530#0_198876043#2_0000e3f9" type="motorcycle" begin="0" end="3600" vehsPerHour="63.35" departLane="best" departPos="random" departSpeed="0" from="34241530#0" to="198876043#2"/>
  <flow id="motorcycle_34241530#0_28231434_0000e3f9" type="motorcycle" begin="0" end="3600" vehsPerHour="51.75" departLane="best" departPos="random" departSpeed="0" from="34241530#0" to="28231434"/>
  <flow id="motorcycle_34241530#0_23241821#0_0000e3f9" type="motorcycle" begin="0" end="3600" vehsPerHour="45.57" departLane="best" departPos="random" departSpeed="0" from="34241530#0" to="23241821#0"/>
  <flow id="truck_34241530#0_198876042#0_0000e3f9" type="truck" begin="0" end="3600" vehsPerHour="12.28" departLane="best" departPos="random" departSpeed="0" from="34241530#0" to="198876042#0"/>
</routes>
