<routes>
<vType id="car" vClass="passenger" accel="2.6" decel="4.5" sigma="0.5" length="5.0" maxSpeed="13.9"/>
<vType id="motorcycle" vClass="motorcycle" accel="3.0" decel="5.0" sigma="0.5" length="2.0" maxSpeed="14.0"/>
<vType id="truck" vClass="truck" accel="1.2" decel="3.5" sigma="0.5" length="12.0" maxSpeed="10.0"/>

  <flow id="car_222682222#1_193253427#0_0005950e" type="car" begin="0" end="3600" vehsPerHour="59.21" departLane="best" departPos="random" departSpeed="0" from="222682222#1" to="193253427#0"/>
  <flow id="car_222682222#1_198876043#0_0005950e" type="car" begin="0" end="3600" vehsPerHour="50.40" departLane="best" departPos="random" departSpeed="0" from="222682222#1" to="198876043#0"/>
  <flow id="car_222682222#1_28231434_0005950e" type="car" begin="0" end="3600" vehsPerHour="50.06" departLane="best" departPos="random" departSpeed="0" from="222682222#1" to="28231434"/>
  <flow id="car_222682222#1_23241821#0_0005950e" type="car" begin="0" end="3600" vehsPerHour="40.27" departLane="best" departPos="random" departSpeed="0" from="222682222#1" to="23241821#0"/>
  <flow id="car_222682222#1_198876042#0_0005950e" type="car" begin="0" end="3600" vehsPerHour="34.37" departLane="best" departPos="random" departSpeed="0" from="222682222#1" to="198876042#0"/>
  <flow id="motorcycle_222682222#1_193253427#0_0005950e" type="motorcycle" begin="0" end="3600" vehsPerHour="175.02" departLane="best" departPos="random" departSpeed="0" from="222682222#1" to="193253427#0"/>
  <flow id="motorcycle_222682222#1_198876043#0_0005950e" type="motorcycle" begin="0" end="3600" vehsPerHour="159.92" departLane="best" departPos="random" departSpeed="0" from="222682222#1" to="198876043#0"/>
  <flow id="motorcycle_222682222#1_28231434_0005950e" type="motorcycle" begin="0" end="3600" vehsPerHour="142.18" departLane="best" departPos="random" departSpeed="0" from="222682222#1" to="28231434"/>
  <flow id="motorcycle_222682222#1_23241821#0_0005950e" type="motorcycle" begin="0" end="3600" vehsPerHour="112.67" departLane="best" departPos="random" departSpeed="0" from="222682222#1" to="23241821#0"/>
  <flow id="motorcycle_222682222#1_198876042#0_0005950e" type="motorcycle" begin="0" end="3600" vehsPerHour="105.11" departLane="best" departPos="random" departSpeed="0" from="222682222#1" to="198876042#0"/>
  <flow id="car_193253433#2_198876043#0_0005950e" type="car" begin="0" end="3600" vehsPerHour="41.80" departLane="best" departPos="random" departSpeed="0" from="193253433#2" to="198876043#0"/>
  <flow id="car_193253433#2_28231434_0005950e" type="car" begin="0" end="3600" vehsPerHour="33.73" departLane="best" departPos="random" departSpeed="0" from="193253433#2" to="28231434"/>
  <flow id="car_193253433#2_23241821#0_0005950e" type="car" begin="0" end="3600" vehsPerHour="35.27" departLane="best" departPos="random" departSpeed="0" from="193253433#2" to="23241821#0"/>
  <flow id="car_193253433#2_198876042#0_0005950e" type="car" begin="0" end="3600" vehsPerHour="27.29" departLane="best" departPos="random" departSpeed="0" from="193253433#2" to="198876042#0"/>
  <flow id="car_193253433#2_193253427#0_0005950e" type="car" begin="0" end="3600" vehsPerHour="23.25" departLane="best" departPos="random" departSpeed="0" from="193253433#2" to="193253427#0"/>
  <flow id="motorcycle_193253433#2_198876043#0_0005950e" type="motorcycle" begin="0" end="3600" vehsPerHour="113.74" departLane="best" departPos="random" departSpeed="0" from="193253433#2" to="198876043#0"/>
  <flow id="motorcycle_193253433#2_28231434_0005950e" type="motorcycle" begin="0" end="3600" vehsPerHour="104.57" departLane="best" departPos="random" departSpeed="0" from="193253433#2" to="28231434"/>
  <flow id="motorcycle_193253433#2_23241821#0_0005950e" type="motorcycle" begin="0" end="3600" vehsPerHour="90.84" departLane="best" departPos="random" departSpeed="0" from="193253433#2" to="23241821#0"/>
  <flow id="motorcycle_193253433#2_198876042#0_0005950e" type="motorcycle" begin="0" end="3600" vehsPerHour="77.03" departLane="best" departPos="random" departSpeed="0" from="193253433#2" to="198876042#0"/>
  <flow id="motorcycle_193253433#2_193253427#0_0005950e" type="motorcycle" begin="0" end="3600" vehsPerHour="65.53" departLane="best" departPos="random" departSpeed="0" from="193253433#2" to="193253427#0"/>
  <flow id="car_198876045#1_28231434_0005950e" type="car" begin="0" end="3600" vehsPerHour="33.43" departLane="best" departPos="random" departSpeed="0" from="198876045#1" to="28231434"/>
  <flow id="car_198876045#1_23241821#0_0005950e" type="car" begin="0" end="3600" vehsPerHour="30.67" departLane="best" departPos="random" departSpeed="0" from="198876045#1" to="23241821#0"/>
  <flow id="car_198876045#1_198876042#0_0005950e" type="car" begin="0" end="3600" vehsPerHour="26.32" departLane="best" departPos="random" departSpeed="0" from="198876045#1" to="198876042#0"/>
  <flow id="car_198876045#1_193253427#0_0005950e" type="car" begin="0" end="3600" vehsPerHour="24.28" departLane="best" departPos="random" departSpeed="0" from="198876045#1" to="193253427#0"/>
  <flow id="car_198876045#1_198876043#2_0005950e" type="car" begin="0" end="3600" vehsPerHour="19.28" departLane="best" departPos="random" departSpeed="0" from="198876045#1" to="198876043#2"/>
  <flow id="motorcycle_198876045#1_28231434_0005950e" type="motorcycle" begin="0" end="3600" vehsPerHour="105.92" departLane="best" departPos="random" departSpeed="0" from="198876045#1" to="28231434"/>
  <flow id="motorcycle_198876045#1_23241821#0_0005950e" type="motorcycle" begin="0" end="3600" vehsPerHour="91.43" departLane="best" departPos="random" departSpeed="0" from="198876045#1" to="23241821#0"/>
  <flow id="motorcycle_198876045#1_198876042#0_0005950e" type="motorcycle" begin="0" end="3600" vehsPerHour="77.61" departLane="best" departPos="random" departSpeed="0" from="198876045#1" to="198876042#0"/>
  <flow id="motorcycle_198876045#1_193253427#0_0005950e" type="motorcycle" begin="0" end="3600" vehsPerHour="76.08" departLane="best" departPos="random" departSpeed="0" from="198876045#1" to="193253427#0"/>
  <flow id="motorcycle_198876045#1_198876043#2_0005950e" type="motorcycle" begin="0" end="3600" vehsPerHour="67.05" departLane="best" departPos="random" departSpeed="0" from="198876045#1" to="198876043#2"/>
  <flow id="car_-28231434_23241821#0_0005950e" type="car" begin="0" end="3600" vehsPerHour="23.84" departLane="best" departPos="random" departSpeed="0" from="-28231434" to="23241821#0"/>
  <flow id="car_-28231434_198876042#0_0005950e" type="car" begin="0" end="3600" vehsPerHour="19.68" departLane="best" departPos="random" departSpeed="0" from="-28231434" to="198876042#0"/>
  <flow id="car_-28231434_193253427#0_0005950e" type="car" begin="0" end="3600" vehsPerHour="17.35" departLane="best" departPos="random" departSpeed="0" from="-28231434" to="193253427#0"/>
  <flow id="car_-28231434_198876043#2_0005950e" type="car" begin="0" end="3600" vehsPerHour="17.49" departLane="best" departPos="random" departSpeed="0" from="-28231434" to="198876043#2"/>
  <flow id="car_-28231434_28231434_0005950e" type="car" begin="0" end="3600" vehsPerHour="13.42" departLane="best" departPos="random" departSpeed="0" from="-28231434" to="28231434"/>
  <flow id="motorcycle_-28231434_23241821#0_0005950e" type="motorcycle" begin="0" end="3600" vehsPerHour="68.31" departLane="best" departPos="random" departSpeed="0" from="-28231434" to="23241821#0"/>
  <flow id="motorcycle_-28231434_198876042#0_0005950e" type="motorcycle" begin="0" end="3600" vehsPerHour="59.79" departLane="best" departPos="random" departSpeed="0" from="-28231434" to="198876042#0"/>
  <flow id="motorcycle_-28231434_193253427#0_0005950e" type="motorcycle" begin="0" end="3600" vehsPerHour="56.25" departLane="best" departPos="random" departSpeed="0" from="-28231434" to="193253427#0"/>
  <flow id="motorcycle_-28231434_198876043#2_0005950e" type="motorcycle" begin="0" end="3600" vehsPerHour="45.17" departLane="best" departPos="random" departSpeed="0" from="-28231434" to="198876043#2"/>
  <flow id="motorcycle_-28231434_28231434_0005950e" type="motorcycle" begin="0" end="3600" vehsPerHour="41.74" departLane="best" departPos="random" departSpeed="0" from="-28231434" to="28231434"/>
  <flow id="car_-55029244#0_198876042#0_0005950e" type="car" begin="0" end="3600" vehsPerHour="27.96" departLane="best" departPos="random" departSpeed="0" from="-55029244#0" to="198876042#0"/>
  <flow id="car_-55029244#0_193253427#0_0005950e" type="car" begin="0" end="3600" vehsPerHour="23.37" departLane="best" departPos="random" departSpeed="0" from="-55029244#0" to="193253427#0"/>
  <flow id="car_-55029244#0_198876043#2_0005950e" type="car" begin="0" end="3600" vehsPerHour="21.01" departLane="best" departPos="random" departSpeed="0" from="-55029244#0" to="198876043#2"/>
  <flow id="car_-55029244#0_28231434_0005950e" type="car" begin="0" end="3600" vehsPerHour="16.90" departLane="best" departPos="random" departSpeed="0" from="-55029244#0" to="28231434"/>
  <flow id="car_-55029244#0_23241821#0_0005950e" type="car" begin="0" end="3600" vehsPerHour="13.79" departLane="best" departPos="random" departSpeed="0" from="-55029244#0" to="23241821#0"/>
  <flow id="motorcycle_-55029244#0_198876042#0_0005950e" type="motorcycle" begin="0" end="3600" vehsPerHour="77.31" departLane="best" departPos="random" departSpeed="0" from="-55029244#0" to="198876042#0"/>
  <flow id="motorcycle_-55029244#0_193253427#0_0005950e" type="motorcycle" begin="0" end="3600" vehsPerHour="69.87" departLane="best" departPos="random" departSpeed="0" from="-55029244#0" to="193253427#0"/>
  <flow id="motorcycle_-55029244#0_198876043#2_0005950e" type="motorcycle" begin="0" end="3600" vehsPerHour="61.27" departLane="best" departPos="random" departSpeed="0" from="-55029244#0" to="198876043#2"/>
  <flow id="motorcycle_-55029244#0_28231434_0005950e" type="motorcycle" begin="0" end="3600" vehsPerHour="55.46" departLane="best" departPos="random" departSpeed="0" from="-55029244#0" to="28231434"/>
  <flow id="motorcycle_-55029244#0_23241821#0_0005950e" type="motorcycle" begin="0" end="3600" vehsPerHour="44.94" departLane="best" departPos="random" departSpeed="0" from="-55029244#0" to="23241821#0"/>
  <flow id="car_34241530#0_198876042#0_0005950e" type="car" begin="0" end="3600" vehsPerHour="25.68" departLane="best" departPos="random" departSpeed="0" from="34241530#0" to="198876042#0"/>
  <flow id="car_34241530#0_193253427#0_0005950e" type="car" begin="0" end="3600" vehsPerHour="23.46" departLane="best" departPos="random" departSpeed="0" from="34241530#0" to="193253427#0"/>
  <flow id="car_34241530#0_198876043#2_0005950e" type="car" begin="0" end="3600" vehsPerHour="20.26" departLane="best" departPos="random" departSpeed="0" from="34241530#0" to="198876043#2"/>
  <flow id="car_34241530#0_28231434_0005950e" type="car" begin="0" end="3600" vehsPerHour="17.51" departLane="best" departPos="random" departSpeed="0" from="34241530#0" to="28231434"/>
  <flow id="car_34241530#0_23241821#0_0005950e" type="car" begin="0" end="3600" vehsPerHour="13.95" departLane="best" departPos="random" departSpeed="0" from="34241530#0" to="23241821#0"/>
  <flow id="motorcycle_34241530#0_198876042#0_0005950e" type="motorcycle" begin="0" end="3600" vehsPerHour="77.74" departLane="best" departPos="random" departSpeed="0" from="34241530#0" to="198876042#0"/>
  <flow id="motorcycle_34241530#0_193253427#0_0005950e" type="motorcycle" begin="0" end="3600" vehsPerHour="66.83" departLane="best" departPos="random" departSpeed="0" from="34241530#0" to="193253427#0"/>
  <flow id="motorcycle_34241530#0_198876043#2_0005950e" type="motorcycle" begin="0" end="3600" vehsPerHour="59.50" departLane="best" departPos="random" departSpeed="0" from="34241530#0" to="198876043#2"/>
  <flow id="motorcycle_34241530#0_28231434_0005950e" type="motorcycle" begin="0" end="3600" vehsPerHour="55.08" departLane="best" departPos="random" departSpeed="0" from="34241530#0" to="28231434"/>
  <flow id="motorcycle_34241530#0_23241821#0_0005950e" type="motorcycle" begin="0" end="3600" vehsPerHour="48.28" departLane="best" departPos="random" departSpeed="0" from="34241530#0" to="23241821#0"/>
  <flow id="truck_34241530#0_198876042#0_0005950e" type="truck" begin="0" end="3600" vehsPerHour="12.02" departLane="best" departPos="random" departSpeed="0" from="34241530#0" to="198876042#0"/>
</routes>
