<routes>
<vType id="car" vClass="passenger" accel="2.6" decel="4.5" sigma="0.5" length="5.0" maxSpeed="13.9"/>
<vType id="motorcycle" vClass="motorcycle" accel="3.0" decel="5.0" sigma="0.5" length="2.0" maxSpeed="14.0"/>
<vType id="truck" vClass="truck" accel="1.2" decel="3.5" sigma="0.5" length="12.0" maxSpeed="10.0"/>

  <flow id="car_222682222#1_193253427#0_000af09b" type="car" begin="0" end="3600" vehsPerHour="60.34" departLane="best" departPos="random" departSpeed="0" from="222682222#1" to="193253427#0"/>
  <flow id="car_222682222#1_198876043#0_000af09b" type="car" begin="0" end="3600" vehsPerHour="48.39" departLane="best" departPos="random" departSpeed="0" from="222682222#1" to="198876043#0"/>
  <flow id="car_222682222#1_28231434_000af09b" type="car" begin="0" end="3600" vehsPerHour="51.69" departLane="best" departPos="random" departSpeed="0" from="222682222#1" to="28231434"/>
  <flow id="car_222682222#1_23241821#0_000af09b" type="car" begin="0" end="3600" vehsPerHour="39.50" departLane="best" departPos="random" departSpeed="0" from="222682222#1" to="23241821#0"/>
  <flow id="car_222682222#1_198876042#0_000af09b" type="car" begin="0" end="3600" vehsPerHour="34.64" departLane="best" departPos="random" departSpeed="0" from="222682222#1" to="198876042#0"/>
  <flow id="motorcycle_222682222#1_193253427#0_000af09b" type="motorcycle" begin="0" end="3600" vehsPerHour="175.06" departLane="best" departPos="random" departSpeed="0" from="222682222#1" to="193253427#0"/>
  <flow id="motorcycle_222682222#1_198876043#0_000af09b" type="motorcycle" begin="0" end="3600" vehsPerHour="151.16" departLane="best" departPos="random" departSpeed="0" from="222682222#1" to="198876043#0"/>
  <flow id="motorcycle_222682222#1_28231434_000af09b" type="motorcycle" begin="0" end="3600" vehsPerHour="142.62" departLane="best" departPos="random" departSpeed="0" from="222682222#1" to="28231434"/>
  <flow id="motorcycle_222682222#1_23241821#0_000af09b" type="motorcycle" begin="0" end="3600" vehsPerHour="114.84" departLane="best" departPos="random" departSpeed="0" from="222682222#1" to="23241821#0"/>
  <flow id="motorcycle_222682222#1_198876042#0_000af09b" type="motorcycle" begin="0" end="3600" vehsPerHour="102.89" departLane="best" departPos="random" departSpeed="0" from="222682222#1" to="198876042#0"/>
  <flow id="car_193253433#2_198876043#0_000af09b" type="car" begin="0" end="3600" vehsPerHour="40.93" departLane="best" departPos="random" departSpeed="0" from="193253433#2" to="198876043#0"/>
  <flow id="car_193253433#2_28231434_000af09b" type="car" begin="0" end="3600" vehsPerHour="34.75" departLane="best" departPos="random" departSpeed="0" from="193253433#2" to="28231434"/>
  <flow id="car_193253433#2_23241821#0_000af09b" type="car" begin="0" end="3600" vehsPerHour="34.69" departLane="best" departPos="random" departSpeed="0" from="193253433#2" to="23241821#0"/>
  <flow id="car_193253433#2_198876042#0_000af09b" type="car" begin="0" end="3600" vehsPerHour="26.99" departLane="best" departPos="random" departSpeed="0" from="193253433#2" to="198876042#0"/>
  <flow id="car_193253433#2_193253427#0_000af09b" type="car" begin="0" end="3600" vehsPerHour="22.51" departLane="best" departPos="random" departSpeed="0" from="193253433#2" to="193253427#0"/>
  <flow id="motorcycle_193253433#2_198876043#0_000af09b" type="motorcycle" begin="0" end="3600" vehsPerHour="118.80" departLane="best" departPos="random" departSpeed="0" from="193253433#2" to="198876043#0"/>
  <flow id="motorcycle_193253433#2_28231434_000af09b" type="motorcycle" begin="0" end="3600" vehsPerHour="102.10" departLane="best" departPos="random" departSpeed="0" from="193253433#2" to="28231434"/>
  <flow id="motorcycle_193253433#2_23241821#0_000af09b" type="motorcycle" begin="0" end="3600" vehsPerHour="90.09" departLane="best" departPos="random" departSpeed="0" from="193253433#2" to="23241821#0"/>
  <flow id="motorcycle_193253433#2_198876042#0_000af09b" type="motorcycle" begin="0" end="3600" vehsPerHour="77.34" departLane="best" departPos="random" departSpeed="0" from="193253433#2" to="198876042#0"/>
  <flow id="motorcycle_193253433#2_193253427#0_000af09b" type="motorcycle" begin="0" end="3600" vehsPerHour="67.07" departLane="best" departPos="random" departSpeed="0" from="193253433#2" to="193253427#0"/>
  <flow id="car_198876045#1_28231434_000af09b" type="car" begin="0" end="3600" vehsPerHour="33.75" departLane="best" departPos="random" departSpeed="0" from="198876045#1" to="28231434"/>
  <flow id="car_198876045#1_23241821#0_000af09b" type="car" begin="0" end="3600" vehsPerHour="31.56" departLane="best" departPos="random" departSpeed="0" from="198876045#1" to="23241821#0"/>
  <flow id="car_198876045#1_198876042#0_000af09b" type="car" begin="0" end="3600" vehsPerHour="28.06" departLane="best" departPos="random" departSpeed="0" from="198876045#1" to="198876042#0"/>
  <flow id="car_198876045#1_193253427#0_000af09b" type="car" begin="0" end="3600" vehsPerHour="23.66" departLane="best" departPos="random" departSpeed="0" from="198876045#1" to="193253427#0"/>
  <flow id="car_198876045#1_198876043#2_000af09b" type="car" begin="0" end="3600" vehsPerHour="20.22" departLane="best" departPos="random" departSpeed="0" from="198876045#1" to="198876043#2"/>
  <flow id="motorcycle_198876045#1_28231434_000af09b" type="motorcycle" begin="0" end="3600" vehsPerHour="98.72" departLane="best" departPos="random" departSpeed="0" from="198876045#1" to="28231434"/>
  <flow id="motorcycle_198876045#1_23241821#0_000af09b" type="motorcycle" begin="0" end="3600" vehsPerHour="83.94" departLane="best" departPos="random" departSpeed="0" from="198876045#1" to="23241821#0"/>
  <flow id="motorcycle_198876045#1_198876042#0_000af09b" type="motorcycle" begin="0" end="3600" vehsPerHour="82.78" departLane="best" departPos="random" departSpeed="0" from="198876045#1" to="198876042#0"/>
  <flow id="motorcycle_198876045#1_193253427#0_000af09b" type="motorcycle" begin="0" end="3600" vehsPerHour="74.66" departLane="best" departPos="random" departSpeed="0" from="198876045#1" to="193253427#0"/>
  <flow id="motorcycle_198876045#1_198876043#2_000af09b" type="motorcycle" begin="0" end="3600" vehsPerHour="68.54" departLane="best" departPos="random" departSpeed="0" from="198876045#1" to="198876043#2"/>
  <flow id="car_-28231434_23241821#0_000af09b" type="car" begin="0" end="3600" vehsPerHour="23.44" departLane="best" departPos="random" departSpeed="0" from="-28231434" to="23241821#0"/>
  <flow id="car_-28231434_198876042#0_000af09b" type="car" begin="0" end="3600" vehsPerHour="19.53" departLane="best" departPos="random" departSpeed="0" from="-28231434" to="198876042#0"/>
  <flow id="car_-28231434_193253427#0_000af09b" type="car" begin="0" end="3600" vehsPerHour="17.64" departLane="best" departPos="random" departSpeed="0" from="-28231434" to="193253427#0"/>
  <flow id="car_-28231434_198876043#2_000af09b" type="car" begin="0" end="3600" vehsPerHour="17.55" departLane="best" departPos="random" departSpeed="0" from="-28231434" to="198876043#2"/>
  <flow id="car_-28231434_28231434_000af09b" type="car" begin="0" end="3600" vehsPerHour="12.89" departLane="best" departPos="random" departSpeed="0" from="-28231434" to="28231434"/>
  <flow id="motorcycle_-28231434_23241821#0_000af09b" type="motorcycle" begin="0" end="3600" vehsPerHour="64.53" departLane="best" departPos="random" departSpeed="0" from="-28231434" to="23241821#0"/>
  <flow id="motorcycle_-28231434_198876042#0_000af09b" type="motorcycle" begin="0" end="3600" vehsPerHour="59.80" departLane="best" departPos="random" departSpeed="0" from="-28231434" to="198876042#0"/>
  <flow id="motorcycle_-28231434_193253427#0_000af09b" type="motorcycle" begin="0" end="3600" vehsPerHour="54.69" departLane="best" departPos="random" departSpeed="0" from="-28231434" to="193253427#0"/>
  <flow id="motorcycle_-28231434_198876043#2_000af09b" type="motorcycle" begin="0" end="3600" vehsPerHour="46.29" departLane="best" departPos="random" departSpeed="0" from="-28231434" to="198876043#2"/>
  <flow id="motorcycle_-28231434_28231434_000af09b" type="motorcycle" begin="0" end="3600" vehsPerHour="41.77" departLane="best" departPos="random" departSpeed="0" from="-28231434" to="28231434"/>
  <flow id="car_-55029244#0_198876042#0_000af09b" type="car" begin="0" end="3600" vehsPerHour="25.94" departLane="best" departPos="random" departSpeed="0" from="-55029244#0" to="198876042#0"/>
  <flow id="car_-55029244#0_193253427#0_000af09b" type="car" begin="0" end="3600" vehsPerHour="24.60" departLane="best" departPos="random" departSpeed="0" from="-55029244#0" to="193253427#0"/>
  <flow id="car_-55029244#0_198876043#2_000af09b" type="car" begin="0" end="3600" vehsPerHour="20.61" departLane="best" departPos="random" departSpeed="0" from="-55029244#0" to="198876043#2"/>
  <flow id="car_-55029244#0_28231434_000af09b" type="car" begin="0" end="3600" vehsPerHour="16.23" departLane="best" departPos="random" departSpeed="0" from="-55029244#0" to="28231434"/>
  <flow id="car_-55029244#0_23241821#0_000af09b" type="car" begin="0" end="3600" vehsPerHour="13.34" departLane="best" departPos="random" departSpeed="0" from="-55029244#0" to="23241821#0"/>
  <flow id="motorcycle_-55029244#0_198876042#0_000af09b" type="motorcycle" begin="0" end="3600" vehsPerHour="81.63" departLane="best" departPos="random" departSpeed="0" from="-55029244#0" to="198876042#0"/>
  <flow id="motorcycle_-55029244#0_193253427#0_000af09b" type="motorcycle" begin="0" end="3600" vehsPerHour="69.03" departLane="best" departPos="random" departSpeed="0" from="-55029244#0" to="193253427#0"/>
  <flow id="motorcycle_-55029244#0_198876043#2_000af09b" type="motorcycle" begin="0" end="3600" vehsPerHour="58.30" departLane="best" departPos="random" departSpeed="0" from="-55029244#0" to="198876043#2"/>
  <flow id="motorcycle_-55029244#0_28231434_000af09b" type="motorcycle" begin="0" end="3600" vehsPerHour="53.02" departLane="best" departPos="random" departSpeed="0" from="-55029244#0" to="28231434"/>
  <flow id="motorcycle_-55029244#0_23241821#0_000af09b" type="motorcycle" begin="0" end="3600" vehsPerHour="46.43" departLane="best" departPos="random" departSpeed="0" from="-55029244#0" to="23241821#0"/>
  <flow id="car_34241530#0_198876042#0_000af09b" type="car" begin="0" end="3600" vehsPerHour="27.34" departLane="best" departPos="random" departSpeed="0" from="34241530#0" to="198876042#0"/>
  <flow id="car_34241530#0_193253427#0_000af09b" type="car" begin="0" end="3600" vehsPerHour="23.29" departLane="best" departPos="random" departSpeed="0" from="34241530#0" to="193253427#0"/>
  <flow id="car_34241530#0_198876043#2_000af09b" type="car" begin="0" end="3600" vehsPerHour="20.90" departLane="best" departPos="random" departSpeed="0" from="34241530#0" to="198876043#2"/>
  <flow id="car_34241530#0_28231434_000af09b" type="car" begin="0" end="3600" vehsPerHour="16.64" departLane="best" departPos="random" departSpeed="0" from="34241530#0" to="28231434"/>
  <flow id="car_34241530#0_23241821#0_000af09b" type="car" begin="0" end="3600" vehsPerHour="13.49" departLane="best" departPos="random" departSpeed="0" from="34241530#0" to="23241821#0"/>
  <flow id="motorcycle_34241530#0_198876042#0_000af09b" type="motorcycle" begin="0" end="3600" vehsPerHour="79.45" departLane="best" departPos="random" departSpeed="0" from="34241530#0" to="198876042#0"/>
  <flow id="motorcycle_34241530#0_193253427#0_000af09b" type="motorcycle" begin="0" end="3600" vehsPerHour="66.22" departLane="best" departPos="random" departSpeed="0" from="34241530#0" to="193253427#0"/>
  <flow id="motorcycle_34241530#0_198876043#2_000af09b" type="motorcycle" begin="0" end="3600" vehsPerHour="59.48" departLane="best" departPos="random" departSpeed="0" from="34241530#0" to="198876043#2"/>
  <flow id="motorcycle_34241530#0_28231434_000af09b" type="motorcycle" begin="0" end="3600" vehsPerHour="53.60" departLane="best" departPos="random" departSpeed="0" from="34241530#0" to="28231434"/>
  <flow id="motorcycle_34241530#0_23241821#0_000af09b" type="motorcycle" begin="0" end="3600" vehsPerHour="44.92" departLane="best" departPos="random" departSpeed="0" from="34241530#0" to="23241821#0"/>
  <flow id="truck_34241530#0_198876042#0_000af09b" type="truck" begin="0" end="3600" vehsPerHour="11.81" departLane="best" departPos="random" departSpeed="0" from="34241530#0" to="198876042#0"/>
</routes>
