<routes>
<vType id="car" vClass="passenger" accel="2.6" decel="4.5" sigma="0.5" length="5.0" maxSpeed="13.9"/>
<vType id="motorcycle" vClass="motorcycle" accel="3.0" decel="5.0" sigma="0.5" length="2.0" maxSpeed="14.0"/>
<vType id="truck" vClass="truck" accel="1.2" decel="3.5" sigma="0.5" length="12.0" maxSpeed="10.0"/>

  <flow id="car_222682222#1_193253427#0_0009a715" type="car" begin="0" end="3600" vehsPerHour="62.83" departLane="best" departPos="random" departSpeed="0" from="222682222#1" to="193253427#0"/>
  <flow id="car_222682222#1_198876043#0_0009a715" type="car" begin="0" end="3600" vehsPerHour="51.53" departLane="best" departPos="random" departSpeed="0" from="222682222#1" to="198876043#0"/>
  <flow id="car_222682222#1_28231434_0009a715" type="car" begin="0" end="3600" vehsPerHour="50.42" departLane="best" departPos="random" departSpeed="0" from="222682222#1" to="28231434"/>
  <flow id="car_222682222#1_23241821#0_0009a715" type="car" begin="0" end="3600" vehsPerHour="41.35" departLane="best" departPos="random" departSpeed="0" from="222682222#1" to="23241821#0"/>
  <flow id="car_222682222#1_198876042#0_0009a715" type="car" begin="0" end="3600" vehsPerHour="32.46" departLane="best" departPos="random" departSpeed="0" from="222682222#1" to="198876042#0"/>
  <flow id="motorcycle_222682222#1_193253427#0_0009a715" type="motorcycle" begin="0" end="3600" vehsPerHour="175.51" departLane="best" departPos="random" departSpeed="0" from="222682222#1" to="193253427#0"/>
  <flow id="motorcycle_222682222#1_198876043#0_0009a715" type="motorcycle" begin="0" end="3600" vehsPerHour="154.63" departLane="best" departPos="random" departSpeed="0" from="222682222#1" to="198876043#0"/>
  <flow id="motorcycle_222682222#1_28231434_0009a715" type="motorcycle" begin="0" end="3600" vehsPerHour="147.71" departLane="best" departPos="random" departSpeed="0" from="222682222#1" to="28231434"/>
  <flow id="motorcycle_222682222#1_23241821#0_0009a715" type="motorcycle" begin="0" end="3600" vehsPerHour="114.09" departLane="best" departPos="random" departSpeed="0" from="222682222#1" to="23241821#0"/>
  <flow id="motorcycle_222682222#1_198876042#0_0009a715" type="motorcycle" begin="0" end="3600" vehsPerHour="102.62" departLane="best" departPos="random" departSpeed="0" from="222682222#1" to="198876042#0"/>
  <flow id="car_193253433#2_198876043#0_0009a715" type="car" begin="0" end="3600" vehsPerHour="40.00" departLane="best" departPos="random" departSpeed="0" from="193253433#2" to="198876043#0"/>
  <flow id="car_193253433#2_28231434_0009a715" type="car" begin="0" end="3600" vehsPerHour="33.99" departLane="best" departPos="random" departSpeed="0" from="193253433#2" to="28231434"/>
  <flow id="car_193253433#2_23241821#0_0009a715" type="car" begin="0" end="3600" vehsPerHour="33.74" departLane="best" departPos="random" departSpeed="0" from="193253433#2" to="23241821#0"/>
  <flow id="car_193253433#2_198876042#0_0009a715" type="car" begin="0" end="3600" vehsPerHour="26.22" departLane="best" departPos="random" departSpeed="0" from="193253433#2" to="198876042#0"/>
  <flow id="car_193253433#2_193253427#0_0009a715" type="car" begin="0" end="3600" vehsPerHour="23.53" departLane="best" departPos="random" departSpeed="0" from="193253433#2" to="193253427#0"/>
  <flow id="motorcycle_193253433#2_198876043#0_0009a715" type="motorcycle" begin="0" end="3600" vehsPerHour="109.19" departLane="best" departPos="random" departSpeed="0" from="193253433#2" to="198876043#0"/>
  <flow id="motorcycle_193253433#2_28231434_0009a715" type="motorcycle" begin="0" end="3600" vehsPerHour="98.49" departLane="best" departPos="random" departSpeed="0" from="193253433#2" to="28231434"/>
  <flow id="motorcycle_193253433#2_23241821#0_0009a715" type="motorcycle" begin="0" end="3600" vehsPerHour="96.45" departLane="best" departPos="random" departSpeed="0" from="193253433#2" to="23241821#0"/>
  <flow id="motorcycle_193253433#2_198876042#0_0009a715" type="motorcycle" begin="0" end="3600" vehsPerHour="81.30" departLane="best" departPos="random" departSpeed="0" from="193253433#2" to="198876042#0"/>
  <flow id="motorcycle_193253433#2_193253427#0_0009a715" type="motorcycle" begin="0" end="3600" vehsPerHour="66.76" departLane="best" departPos="random" departSpeed="0" from="193253433#2" to="193253427#0"/>
  <flow id="car_198876045#1_28231434_0009a715" type="car" begin="0" end="3600" vehsPerHour="32.71" departLane="best" departPos="random" departSpeed="0" from="198876045#1" to="28231434"/>
  <flow id="car_198876045#1_23241821#0_0009a715" type="car" begin="0" end="3600" vehsPerHour="30.76" departLane="best" departPos="random" departSpeed="0" from="198876045#1" to="23241821#0"/>
  <flow id="car_198876045#1_198876042#0_0009a715" type="car" begin="0" end="3600" vehsPerHour="27.39" departLane="best" departPos="random" departSpeed="0" from="198876045#1" to="198876042#0"/>
  <flow id="car_198876045#1_193253427#0_0009a715" type="car" begin="0" end="3600" vehsPerHour="23.00" departLane="best" departPos="random" departSpeed="0" from="198876045#1" to="193253427#0"/>
  <flow id="car_198876045#1_198876043#2_0009a715" type="car" begin="0" end="3600" vehsPerHour="20.96" departLane="best" departPos="random" departSpeed="0" from="198876045#1" to="198876043#2"/>
  <flow id="motorcycle_198876045#1_28231434_0009a715" type="motorcycle" begin="0" end="3600" vehsPerHour="102.75" departLane="best" departPos="random" departSpeed="0" from="198876045#1" to="28231434"/>
  <flow id="motorcycle_198876045#1_23241821#0_0009a715" type="motorcycle" begin="0" end="3600" vehsPerHour="85.82" departLane="best" departPos="random" departSpeed="0" from="198876045#1" to="23241821#0"/>
  <flow id="motorcycle_198876045#1_198876042#0_0009a715" type="motorcycle" begin="0" end="3600" vehsPerHour="79.84" departLane="best" departPos="random" departSpeed="0" from="198876045#1" to="198876042#0"/>
  <flow id="motorcycle_198876045#1_193253427#0_0009a715" type="motorcycle" begin="0" end="3600" vehsPerHour="70.60" departLane="best" departPos="random" departSpeed="0" from="198876045#1" to="193253427#0"/>
  <flow id="motorcycle_198876045#1_198876043#2_0009a715" type="motorcycle" begin="0" end="3600" vehsPerHour="66.42" departLane="best" departPos="random" departSpeed="0" from="198876045#1" to="198876043#2"/>
  <flow id="car_-28231434_23241821#0_0009a715" type="car" begin="0" end="3600" vehsPerHour="23.01" departLane="best" departPos="random" departSpeed="0" from="-28231434" to="23241821#0"/>
  <flow id="car_-28231434_198876042#0_0009a715" type="car" begin="0" end="3600" vehsPerHour="20.12" departLane="best" departPos="random" departSpeed="0" from="-28231434" to="198876042#0"/>
  <flow id="car_-28231434_193253427#0_0009a715" type="car" begin="0" end="3600" vehsPerHour="16.52" departLane="best" departPos="random" departSpeed="0" from="-28231434" to="193253427#0"/>
  <flow id="car_-28231434_198876043#2_0009a715" type="car" begin="0" end="3600" vehsPerHour="17.50" departLane="best" departPos="random" departSpeed="0" from="-28231434" to="198876043#2"/>
  <flow id="car_-28231434_28231434_0009a715" type="car" begin="0" end="3600" vehsPerHour="13.99" departLane="best" departPos="random" departSpeed="0" from="-28231434" to="28231434"/>
  <flow id="motorcycle_-28231434_23241821#0_0009a715" type="motorcycle" begin="0" end="3600" vehsPerHour="64.26" departLane="best" departPos="random" departSpeed="0" from="-28231434" to="23241821#0"/>
  <flow id="motorcycle_-28231434_198876042#0_0009a715" type="motorcycle" begin="0" end="3600" vehsPerHour="58.43" departLane="best" departPos="random" departSpeed="0" from="-28231434" to="198876042#0"/>
  <flow id="motorcycle_-28231434_193253427#0_0009a715" type="motorcycle" begin="0" end="3600" vehsPerHour="56.42" departLane="best" departPos="random" departSpeed="0" from="-28231434" to="193253427#0"/>
  <flow id="motorcycle_-28231434_198876043#2_0009a715" type="motorcycle" begin="0" end="3600" vehsPerHour="45.78" departLane="best" departPos="random" departSpeed="0" from="-28231434" to="198876043#2"/>
  <flow id="motorcycle_-28231434_28231434_0009a715" type="motorcycle" begin="0" end="3600" vehsPerHour="39.69" departLane="best" departPos="random" departSpeed="0" from="-28231434" to="28231434"/>
  <flow id="car_-55029244#0_198876042#0_0009a715" type="car" begin="0" end="3600" vehsPerHour="27.52" departLane="best" departPos="random" departSpeed="0" from="-55029244#0" to="198876042#0"/>
  <flow id="car_-55029244#0_193253427#0_0009a715" type="car" begin="0" end="3600" vehsPerHour="24.13" departLane="best" departPos="random" departSpeed="0" from="-55029244#0" to="193253427#0"/>
  <flow id="car_-55029244#0_198876043#2_0009a715" type="car" begin="0" end="3600" vehsPerHour="19.83" departLane="best" departPos="random" departSpeed="0" from="-55029244#0" to="198876043#2"/>
  <flow id="car_-55029244#0_28231434_0009a715" type="car" begin="0" end="3600" vehsPerHour="16.56" departLane="best" departPos="random" departSpeed="0" from="-55029244#0" to="28231434"/>
  <flow id="car_-55029244#0_23241821#0_0009a715" type="car" begin="0" end="3600" vehsPerHour="13.68" departLane="best" departPos="random" departSpeed="0" from="-55029244#0" to="23241821#0"/>
  <flow id="motorcycle_-55029244#0_198876042#0_0009a715" type="motorcycle" begin="0" end="3600" vehsPerHour="80.40" departLane="best" departPos="random" departSpeed="0" from="-55029244#0" to="198876042#0"/>
  <flow id="motorcycle_-55029244#0_193253427#0_0009a715" type="motorcycle" begin="0" end="3600" vehsPerHour="66.22" departLane="best" departPos="random" departSpeed="0" from="-55029244#0" to="193253427#0"/>
  <flow id="motorcycle_-55029244#0_198876043#2_0009a715" type="motorcycle" begin="0" end="3600" vehsPerHour="61.61" departLane="best" departPos="random" departSpeed="0" from="-55029244#0" to="198876043#2"/>
  <flow id="motorcycle_-55029244#0_28231434_0009a715" type="motorcycle" begin="0" end="3600" vehsPerHour="56.54" departLane="best" departPos="random" departSpeed="0" from="-55029244#0" to="28231434"/>
  <flow id="motorcycle_-55029244#0_23241821#0_0009a715" type="motorcycle" begin="0" end="3600" vehsPerHour="49.31" departLane="best" departPos="random" departSpeed="0" from="-55029244#0" to="23241821#0"/>
  <flow id="car_34241530#0_198876042#0_0009a715" type="car" begin="0" end="3600" vehsPerHour="26.95" departLane="best" departPos="random" departSpeed="0" from="34241530#0" to="198876042#0"/>
  <flow id="car_34241530#0_193253427#0_0009a715" type="car" begin="0" end="3600" vehsPerHour="23.86" departLane="best" departPos="random" departSpeed="0" from="34241530#0" to="193253427#0"/>
  <flow id="car_34241530#0_198876043#2_0009a715" type="car" begin="0" end="3600" vehsPerHour="19.73" departLane="best" departPos="random" departSpeed="0" from="34241530#0" to="198876043#2"/>
  <flow id="car_34241530#0_28231434_0009a715" type="car" begin="0" end="3600" vehsPerHour="16.36" departLane="best" departPos="random" departSpeed="0" from="34241530#0" to="28231434"/>
  <flow id="car_34241530#0_23241821#0_0009a715" type="car" begin="0" end="3600" vehsPerHour="12.90" departLane="best" departPos="random" departSpeed="0" from="34241530#0" to="23241821#0"/>
  <flow id="motorcycle_34241530#0_198876042#0_0009a715" type="motorcycle" begin="0" end="3600" vehsPerHour="81.65" departLane="best" departPos="random" departSpeed="0" from="34241530#0" to="198876042#0"/>
  <flow id="motorcycle_34241530#0_193253427#0_0009a715" type="motorcycle" begin="0" end="3600" vehsPerHour="64.23" departLane="best" departPos="random" departSpeed="0" from="34241530#0" to="193253427#0"/>
  <flow id="motorcycle_34241530#0_198876043#2_0009a715" type="motorcycle" begin="0" end="3600" vehsPerHour="58.92" departLane="best" departPos="random" departSpeed="0" from="34241530#0" to="198876043#2"/>
  <flow id="motorcycle_34241530#0_28231434_0009a715" type="motorcycle" begin="0" end="3600" vehsPerHour="52.71" departLane="best" departPos="random" departSpeed="0" from="34241530#0" to="28231434"/>
  <flow id="motorcycle_34241530#0_23241821#0_0009a715" type="motorcycle" begin="0" end="3600" vehsPerHour="44.82" departLane="best" departPos="random" departSpeed="0" from="34241530#0" to="23241821#0"/>
  <flow id="truck_34241530#0_198876042#0_0009a715" type="truck" begin="0" end="3600" vehsPerHour="11.62" departLane="best" departPos="random" departSpeed="0" from="34241530#0" to="198876042#0"/>
</routes>
