<routes>
<vType id="car" vClass="passenger" accel="2.6" decel="4.5" sigma="0.5" length="5.0" maxSpeed="13.9"/>
<vType id="motorcycle" vClass="motorcycle" accel="3.0" decel="5.0" sigma="0.5" length="2.0" maxSpeed="14.0"/>
<vType id="truck" vClass="truck" accel="1.2" decel="3.5" sigma="0.5" length="12.0" maxSpeed="10.0"/>

  <flow id="car_222682222#1_193253427#0_000098fd" type="car" begin="0" end="3600" vehsPerHour="62.29" departLane="best" departPos="random" departSpeed="0" from="222682222#1" to="193253427#0"/>
  <flow id="car_222682222#1_198876043#0_000098fd" type="car" begin="0" end="3600" vehsPerHour="51.78" departLane="best" departPos="random" departSpeed="0" from="222682222#1" to="198876043#0"/>
  <flow id="car_222682222#1_28231434_000098fd" type="car" begin="0" end="3600" vehsPerHour="52.75" departLane="best" departPos="random" departSpeed="0" from="222682222#1" to="28231434"/>
  <flow id="car_222682222#1_23241821#0_000098fd" type="car" begin="0" end="3600" vehsPerHour="41.54" departLane="best" departPos="random" departSpeed="0" from="222682222#1" to="23241821#0"/>
  <flow id="car_222682222#1_198876042#0_000098fd" type="car" begin="0" end="3600" vehsPerHour="33.93" departLane="best" departPos="random" departSpeed="0" from="222682222#1" to="198876042#0"/>
  <flow id="motorcycle_222682222#1_193253427#0_000098fd" type="motorcycle" begin="0" end="3600" vehsPerHour="169.13" departLane="best" departPos="random" departSpeed="0" from="222682222#1" to="193253427#0"/>
  <flow id="motorcycle_222682222#1_198876043#0_000098fd" type="motorcycle" begin="0" end="3600" vehsPerHour="157.98" departLane="best" departPos="random" departSpeed="0" from="222682222#1" to="198876043#0"/>
  <flow id="motorcycle_222682222#1_28231434_000098fd" type="motorcycle" begin="0" end="3600" vehsPerHour="134.73" departLane="best" departPos="random" departSpeed="0" from="222682222#1" to="28231434"/>
  <flow id="motorcycle_222682222#1_23241821#0_000098fd" type="motorcycle" begin="0" end="3600" vehsPerHour="110.07" departLane="best" departPos="random" departSpeed="0" from="222682222#1" to="23241821#0"/>
  <flow id="motorcycle_222682222#1_198876042#0_000098fd" type="motorcycle" begin="0" end="3600" vehsPerHour="105.86" departLane="best" departPos="random" departSpeed="0" from="222682222#1" to="198876042#0"/>
  <flow id="car_193253433#2_198876043#0_000098fd" type="car" begin="0" end="3600" vehsPerHour="38.82" departLane="best" departPos="random" departSpeed="0" from="193253433#2" to="198876043#0"/>
  <flow id="car_193253433#2_28231434_000098fd" type="car" begin="0" end="3600" vehsPerHour="32.90" departLane="best" departPos="random" departSpeed="0" from="193253433#2" to="28231434"/>
  <flow id="car_193253433#2_23241821#0_000098fd" type="car" begin="0" end="3600" vehsPerHour="33.47" departLane="best" departPos="random" departSpeed="0" from="193253433#2" to="23241821#0"/>
  <flow id="car_193253433#2_198876042#0_000098fd" type="car" begin="0" end="3600" vehsPerHour="26.43" departLane="best" departPos="random" departSpeed="0" from="193253433#2" to="198876042#0"/>
  <flow id="car_193253433#2_193253427#0_000098fd" type="car" begin="0" end="3600" vehsPerHour="22.96" departLane="best" departPos="random" departSpeed="0" from="193253433#2" to="193253427#0"/>
  <flow id="motorcycle_193253433#2_198876043#0_000098fd" type="motorcycle" begin="0" end="3600" vehsPerHour="110.33" departLane="best" departPos="random" departSpeed="0" from="193253433#2" to="198876043#0"/>
  <flow id="motorcycle_193253433#2_28231434_000098fd" type="motorcycle" begin="0" end="3600" vehsPerHour="102.80" departLane="best" departPos="random" departSpeed="0" from="193253433#2" to="28231434"/>
  <flow id="motorcycle_193253433#2_23241821#0_000098fd" type="motorcycle" begin="0" end="3600" vehsPerHour="91.64" departLane="best" departPos="random" departSpeed="0" from="193253433#2" to="23241821#0"/>
  <flow id="motorcycle_193253433#2_198876042#0_000098fd" type="motorcycle" begin="0" end="3600" vehsPerHour="80.16" departLane="best" departPos="random" departSpeed="0" from="193253433#2" to="198876042#0"/>
  <flow id="motorcycle_193253433#2_193253427#0_000098fd" type="motorcycle" begin="0" end="3600" vehsPerHour="69.39" departLane="best" departPos="random" departSpeed="0" from="193253433#2" to="193253427#0"/>
  <flow id="car_198876045#1_28231434_000098fd" type="car" begin="0" end="3600" vehsPerHour="33.63" departLane="best" departPos="random" departSpeed="0" from="198876045#1" to="28231434"/>
  <flow id="car_198876045#1_23241821#0_000098fd" type="car" begin="0" end="3600" vehsPerHour="30.41" departLane="best" departPos="random" departSpeed="0" from="198876045#1" to="23241821#0"/>
  <flow id="car_198876045#1_198876042#0_000098fd" type="car" begin="0" end="3600" vehsPerHour="27.55" departLane="best" departPos="random" departSpeed="0" from="198876045#1" to="198876042#0"/>
  <flow id="car_198876045#1_193253427#0_000098fd" type="car" begin="0" end="3600" vehsPerHour="23.75" departLane="best" departPos="random" departSpeed="0" from="198876045#1" to="193253427#0"/>
  <flow id="car_198876045#1_198876043#2_000098fd" type="car" begin="0" end="3600" vehsPerHour="20.45" departLane="best" departPos="random" departSpeed="0" from="198876045#1" to="198876043#2"/>
  <flow id="motorcycle_198876045#1_28231434_000098fd" type="motorcycle" begin="0" end="3600" vehsPerHour="105.18" departLane="best" departPos="random" departSpeed="0" from="198876045#1" to="28231434"/>
  <flow id="motorcycle_198876045#1_23241821#0_000098fd" type="motorcycle" begin="0" end="3600" vehsPerHour="91.47" departLane="best" departPos="random" departSpeed="0" from="198876045#1" to="23241821#0"/>
  <flow id="motorcycle_198876045#1_198876042#0_000098fd" type="motorcycle" begin="0" end="3600" vehsPerHour="81.19" departLane="best" departPos="random" departSpeed="0" from="198876045#1" to="198876042#0"/>
  <flow id="motorcycle_198876045#1_193253427#0_000098fd" type="motorcycle" begin="0" end="3600" vehsPerHour="76.03" departLane="best" departPos="random" departSpeed="0" from="198876045#1" to="193253427#0"/>
  <flow id="motorcycle_198876045#1_198876043#2_000098fd" type="motorcycle" begin="0" end="3600" vehsPerHour="64.97" departLane="best" departPos="random" departSpeed="0" from="198876045#1" to="198876043#2"/>
  <flow id="car_-28231434_23241821#0_000098fd" type="car" begin="0" end="3600" vehsPerHour="24.16" departLane="best" departPos="random" departSpeed="0" from="-28231434" to="23241821#0"/>
  <flow id="car_-28231434_198876042#0_000098fd" type="car" begin="0" end="3600" vehsPerHour="19.54" departLane="best" departPos="random" departSpeed="0" from="-28231434" to="198876042#0"/>
  <flow id="car_-28231434_193253427#0_000098fd" type="car" begin="0" end="3600" vehsPerHour="16.09" departLane="best" departPos="random" departSpeed="0" from="-28231434" to="193253427#0"/>
  <flow id="car_-28231434_198876043#2_000098fd" type="car" begin="0" end="3600" vehsPerHour="16.53" departLane="best" departPos="random" departSpeed="0" from="-28231434" to="198876043#2"/>
  <flow id="car_-28231434_28231434_000098fd" type="car" begin="0" end="3600" vehsPerHour="12.94" departLane="best" departPos="random" departSpeed="0" from="-28231434" to="28231434"/>
  <flow id="motorcycle_-28231434_23241821#0_000098fd" type="motorcycle" begin="0" end="3600" vehsPerHour="66.66" departLane="best" departPos="random" departSpeed="0" from="-28231434" to="23241821#0"/>
  <flow id="motorcycle_-28231434_198876042#0_000098fd" type="motorcycle" begin="0" end="3600" vehsPerHour="58.18" departLane="best" departPos="random" departSpeed="0" from="-28231434" to="198876042#0"/>
  <flow id="motorcycle_-28231434_193253427#0_000098fd" type="motorcycle" begin="0" end="3600" vehsPerHour="54.62" departLane="best" departPos="random" departSpeed="0" from="-28231434" to="193253427#0"/>
  <flow id="motorcycle_-28231434_198876043#2_000098fd" type="motorcycle" begin="0" end="3600" vehsPerHour="45.96" departLane="best" departPos="random" departSpeed="0" from="-28231434" to="198876043#2"/>
  <flow id="motorcycle_-28231434_28231434_000098fd" type="motorcycle" begin="0" end="3600" vehsPerHour="40.25" departLane="best" departPos="random" departSpeed="0" from="-28231434" to="28231434"/>
  <flow id="car_-55029244#0_198876042#0_000098fd" type="car" begin="0" end="3600" vehsPerHour="27.09" departLane="best" departPos="random" departSpeed="0" from="-55029244#0" to="198876042#0"/>
  <flow id="car_-55029244#0_193253427#0_000098fd" type="car" begin="0" end="3600" vehsPerHour="24.32" departLane="best" departPos="random" departSpeed="0" from="-55029244#0" to="193253427#0"/>
  <flow id="car_-55029244#0_198876043#2_000098fd" type="car" begin="0" end="3600" vehsPerHour="19.64" departLane="best" departPos="random" departSpeed="0" from="-55029244#0" to="198876043#2"/>
  <flow id="car_-55029244#0_28231434_000098fd" type="car" begin="0" end="3600" vehsPerHour="17.50" departLane="best" departPos="random" departSpeed="0" from="-55029244#0" to="28231434"/>
  <flow id="car_-55029244#0_23241821#0_000098fd" type="car" begin="0" end="3600" vehsPerHour="13.34" departLane="best" departPos="random" departSpeed="0" from="-55029244#0" to="23241821#0"/>
  <flow id="motorcycle_-55029244#0_198876042#0_000098fd" type="motorcycle" begin="0" end="3600" vehsPerHour="79.15" departLane="best" departPos="random" departSpeed="0" from="-55029244#0" to="198876042#0"/>
  <flow id="motorcycle_-55029244#0_193253427#0_000098fd" type="motorcycle" begin="0" end="3600" vehsPerHour="65.12" departLane="best" departPos="random" departSpeed="0" from="-55029244#0" to="193253427#0"/>
  <flow id="motorcycle_-55029244#0_198876043#2_000098fd" type="motorcycle" begin="0" end="3600" vehsPerHour="61.34" departLane="best" departPos="random" departSpeed="0" from="-55029244#0" to="198876043#2"/>
  <flow id="motorcycle_-55029244#0_28231434_000098fd" type="motorcycle" begin="0" end="3600" vehsPerHour="55.21" departLane="best" departPos="random" departSpeed="0" from="-55029244#0" to="28231434"/>
  <flow id="motorcycle_-55029244#0_23241821#0_000098fd" type="motorcycle" begin="0" end="3600" vehsPerHour="45.35" departLane="best" departPos="random" departSpeed="0" from="-55029244#0" to="23241821#0"/>
  <flow id="car_34241530#0_198876042#0_000098fd" type="car" begin="0" end="3600" vehsPerHour="26.14" departLane="best" departPos="random" departSpeed="0" from="34241530#0" to="198876042#0"/>
  <flow id="car_34241530#0_193253427#0_000098fd" type="car" begin="0" end="3600" vehsPerHour="23.39" departLane="best" departPos="random" departSpeed="0" from="34241530#0" to="193253427#0"/>
  <flow id="car_34241530#0_198876043#2_000098fd" type="car" begin="0" end="3600" vehsPerHour="20.47" departLane="best" departPos="random" departSpeed="0" from="34241530#0" to="198876043#2"/>
  <flow id="car_34241530#0_28231434_000098fd" type="car" begin="0" end="3600" vehsPerHour="16.92" departLane="best" departPos="random" departSpeed="0" from="34241530#0" to="28231434"/>
  <flow id="car_34241530#0_23241821#0_000098fd" type="car" begin="0" end="3600" vehsPerHour="12.81" departLane="best" departPos="random" departSpeed="0" from="34241530#0" to="23241821#0"/>
  <flow id="motorcycle_34241530#0_198876042#0_000098fd" type="motorcycle" begin="0" end="3600" vehsPerHour="82.46" departLane="best" departPos="random" departSpeed="0" from="34241530#0" to="198876042#0"/>
  <flow id="motorcycle_34241530#0_193253427#0_000098fd" type="motorcycle" begin="0" end="3600" vehsPerHour="69.77" departLane="best" departPos="random" departSpeed="0" from="34241530#0" to="193253427#0"/>
  <flow id="motorcycle_34241530#0_198876043#2_000098fd" type="motorcycle" begin="0" end="3600" vehsPerHour="63.04" departLane="best" departPos="random" departSpeed="0" from="34241530#0" to="198876043#2"/>
  <flow id="motorcycle_34241530#0_28231434_000098fd" type="motorcycle" begin="0" end="3600" vehsPerHour="51.27" departLane="best" departPos="random" departSpeed="0" from="34241530#0" to="28231434"/>
  <flow id="motorcycle_34241530#0_23241821#0_000098fd" type="motorcycle" begin="0" end="3600" vehsPerHour="48.47" departLane="best" departPos="random" departSpeed="0" from="34241530#0" to="23241821#0"/>
  <flow id="truck_34241530#0_198876042#0_000098fd" type="truck" begin="0" end="3600" vehsPerHour="11.93" departLane="best" departPos="random" departSpeed="0" from="34241530#0" to="198876042#0"/>
</routes>
