<routes>
<vType id="car" vClass="passenger" accel="2.6" decel="4.5" sigma="0.5" length="5.0" maxSpeed="13.9"/>
<vType id="motorcycle" vClass="motorcycle" accel="3.0" decel="5.0" sigma="0.5" length="2.0" maxSpeed="14.0"/>
<vType id="truck" vClass="truck" accel="1.2" decel="3.5" sigma="0.5" length="12.0" maxSpeed="10.0"/>

  <flow id="car_222682222#1_193253427#0_000020f6" type="car" begin="0" end="3600" vehsPerHour="58.26" departLane="best" departPos="random" departSpeed="0" from="222682222#1" to="193253427#0"/>
  <flow id="car_222682222#1_198876043#0_000020f6" type="car" begin="0" end="3600" vehsPerHour="51.29" departLane="best" departPos="random" departSpeed="0" from="222682222#1" to="198876043#0"/>
  <flow id="car_222682222#1_28231434_000020f6" type="car" begin="0" end="3600" vehsPerHour="52.21" departLane="best" departPos="random" departSpeed="0" from="222682222#1" to="28231434"/>
  <flow id="car_222682222#1_23241821#0_000020f6" type="car" begin="0" end="3600" vehsPerHour="40.27" departLane="best" departPos="random" departSpeed="0" from="222682222#1" to="23241821#0"/>
  <flow id="car_222682222#1_198876042#0_000020f6" type="car" begin="0" end="3600" vehsPerHour="32.45" departLane="best" departPos="random" departSpeed="0" from="222682222#1" to="198876042#0"/>
  <flow id="motorcycle_222682222#1_193253427#0_000020f6" type="motorcycle" begin="0" end="3600" vehsPerHour="173.20" departLane="best" departPos="random" departSpeed="0" from="222682222#1" to="193253427#0"/>
  <flow id="motorcycle_222682222#1_198876043#0_000020f6" type="motorcycle" begin="0" end="3600" vehsPerHour="156.51" departLane="best" departPos="random" departSpeed="0" from="222682222#1" to="198876043#0"/>
  <flow id="motorcycle_222682222#1_28231434_000020f6" type="motorcycle" begin="0" end="3600" vehsPerHour="148.24" departLane="best" departPos="random" departSpeed="0" from="222682222#1" to="28231434"/>
  <flow id="motorcycle_222682222#1_23241821#0_000020f6" type="motorcycle" begin="0" end="3600" vehsPerHour="113.59" departLane="best" departPos="random" departSpeed="0" from="222682222#1" to="23241821#0"/>
  <flow id="motorcycle_222682222#1_198876042#0_000020f6" type="motorcycle" begin="0" end="3600" vehsPerHour="103.50" departLane="best" departPos="random" departSpeed="0" from="222682222#1" to="198876042#0"/>
  <flow id="car_193253433#2_198876043#0_000020f6" type="car" begin="0" end="3600" vehsPerHour="39.52" departLane="best" departPos="random" departSpeed="0" from="193253433#2" to="198876043#0"/>
  <flow id="car_193253433#2_28231434_000020f6" type="car" begin="0" end="3600" vehsPerHour="33.24" departLane="best" departPos="random" departSpeed="0" from="193253433#2" to="28231434"/>
  <flow id="car_193253433#2_23241821#0_000020f6" type="car" begin="0" end="3600" vehsPerHour="34.96" departLane="best" departPos="random" departSpeed="0" from="193253433#2" to="23241821#0"/>
  <flow id="car_193253433#2_198876042#0_000020f6" type="car" begin="0" end="3600" vehsPerHour="26.02" departLane="best" departPos="random" departSpeed="0" from="193253433#2" to="198876042#0"/>
  <flow id="car_193253433#2_193253427#0_000020f6" type="car" begin="0" end="3600" vehsPerHour="24.76" departLane="best" departPos="random" departSpeed="0" from="193253433#2" to="193253427#0"/>
  <flow id="motorcycle_193253433#2_198876043#0_000020f6" type="motorcycle" begin="0" end="3600" vehsPerHour="114.66" departLane="best" departPos="random" departSpeed="0" from="193253433#2" to="198876043#0"/>
  <flow id="motorcycle_193253433#2_28231434_000020f6" type="motorcycle" begin="0" end="3600" vehsPerHour="105.13" departLane="best" departPos="random" departSpeed="0" from="193253433#2" to="28231434"/>
  <flow id="motorcycle_193253433#2_23241821#0_000020f6" type="motorcycle" begin="0" end="3600" vehsPerHour="95.90" departLane="best" departPos="random" departSpeed="0" from="193253433#2" to="23241821#0"/>
  <flow id="motorcycle_193253433#2_198876042#0_000020f6" type="motorcycle" begin="0" end="3600" vehsPerHour="80.87" departLane="best" departPos="random" departSpeed="0" from="193253433#2" to="198876042#0"/>
  <flow id="motorcycle_193253433#2_193253427#0_000020f6" type="motorcycle" begin="0" end="3600" vehsPerHour="64.15" departLane="best" departPos="random" departSpeed="0" from="193253433#2" to="193253427#0"/>
  <flow id="car_198876045#1_28231434_000020f6" type="car" begin="0" end="3600" vehsPerHour="32.74" departLane="best" departPos="random" departSpeed="0" from="198876045#1" to="28231434"/>
  <flow id="car_198876045#1_23241821#0_000020f6" type="car" begin="0" end="3600" vehsPerHour="29.11" departLane="best" departPos="random" departSpeed="0" from="198876045#1" to="23241821#0"/>
  <flow id="car_198876045#1_198876042#0_000020f6" type="car" begin="0" end="3600" vehsPerHour="27.55" departLane="best" departPos="random" departSpeed="0" from="198876045#1" to="198876042#0"/>
  <flow id="car_198876045#1_193253427#0_000020f6" type="car" begin="0" end="3600" vehsPerHour="23.68" departLane="best" departPos="random" departSpeed="0" from="198876045#1" to="193253427#0"/>
  <flow id="car_198876045#1_198876043#2_000020f6" type="car" begin="0" end="3600" vehsPerHour="19.73" departLane="best" departPos="random" departSpeed="0" from="198876045#1" to="198876043#2"/>
  <flow id="motorcycle_198876045#1_28231434_000020f6" type="motorcycle" begin="0" end="3600" vehsPerHour="103.85" departLane="best" departPos="random" departSpeed="0" from="198876045#1" to="28231434"/>
  <flow id="motorcycle_198876045#1_23241821#0_000020f6" type="motorcycle" begin="0" end="3600" vehsPerHour="89.41" departLane="best" departPos="random" departSpeed="0" from="198876045#1" to="23241821#0"/>
  <flow id="motorcycle_198876045#1_198876042#0_000020f6" type="motorcycle" begin="0" end="3600" vehsPerHour="79.53" departLane="best" departPos="random" departSpeed="0" from="198876045#1" to="198876042#0"/>
  <flow id="motorcycle_198876045#1_193253427#0_000020f6" type="motorcycle" begin="0" end="3600" vehsPerHour="75.46" departLane="best" departPos="random" departSpeed="0" from="198876045#1" to="193253427#0"/>
  <flow id="motorcycle_198876045#1_198876043#2_000020f6" type="motorcycle" begin="0" end="3600" vehsPerHour="66.69" departLane="best" departPos="random" departSpeed="0" from="198876045#1" to="198876043#2"/>
  <flow id="car_-28231434_23241821#0_000020f6" type="car" begin="0" end="3600" vehsPerHour="22.98" departLane="best" departPos="random" departSpeed="0" from="-28231434" to="23241821#0"/>
  <flow id="car_-28231434_198876042#0_000020f6" type="car" begin="0" end="3600" vehsPerHour="20.37" departLane="best" departPos="random" departSpeed="0" from="-28231434" to="198876042#0"/>
  <flow id="car_-28231434_193253427#0_000020f6" type="car" begin="0" end="3600" vehsPerHour="16.23" departLane="best" departPos="random" departSpeed="0" from="-28231434" to="193253427#0"/>
  <flow id="car_-28231434_198876043#2_000020f6" type="car" begin="0" end="3600" vehsPerHour="16.31" departLane="best" departPos="random" departSpeed="0" from="-28231434" to="198876043#2"/>
  <flow id="car_-28231434_28231434_000020f6" type="car" begin="0" end="3600" vehsPerHour="13.47" departLane="best" departPos="random" departSpeed="0" from="-28231434" to="28231434"/>
  <flow id="motorcycle_-28231434_23241821#0_000020f6" type="motorcycle" begin="0" end="3600" vehsPerHour="67.14" departLane="best" departPos="random" departSpeed="0" from="-28231434" to="23241821#0"/>
  <flow id="motorcycle_-28231434_198876042#0_000020f6" type="motorcycle" begin="0" end="3600" vehsPerHour="58.46" departLane="best" departPos="random" departSpeed="0" from="-28231434" to="198876042#0"/>
  <flow id="motorcycle_-28231434_193253427#0_000020f6" type="motorcycle" begin="0" end="3600" vehsPerHour="52.19" departLane="best" departPos="random" departSpeed="0" from="-28231434" to="193253427#0"/>
  <flow id="motorcycle_-28231434_198876043#2_000020f6" type="motorcycle" begin="0" end="3600" vehsPerHour="45.32" departLane="best" departPos="random" departSpeed="0" from="-28231434" to="198876043#2"/>
  <flow id="motorcycle_-28231434_28231434_000020f6" type="motorcycle" begin="0" end="3600" vehsPerHour="40.09" departLane="best" departPos="random" departSpeed="0" from="-28231434" to="28231434"/>
  <flow id="car_-55029244#0_198876042#0_000020f6" type="car" begin="0" end="3600" vehsPerHour="26.00" departLane="best" departPos="random" departSpeed="0" from="-55029244#0" to="198876042#0"/>
  <flow id="car_-55029244#0_193253427#0_000020f6" type="car" begin="0" end="3600" vehsPerHour="22.71" departLane="best" departPos="random" departSpeed="0" from="-55029244#0" to="193253427#0"/>
  <flow id="car_-55029244#0_198876043#2_000020f6" type="car" begin="0" end="3600" vehsPerHour="19.77" departLane="best" departPos="random" departSpeed="0" from="-55029244#0" to="198876043#2"/>
  <flow id="car_-55029244#0_28231434_000020f6" type="car" begin="0" end="3600" vehsPerHour="17.41" departLane="best" departPos="random" departSpeed="0" from="-55029244#0" to="28231434"/>
  <flow id="car_-55029244#0_23241821#0_000020f6" type="car" begin="0" end="3600" vehsPerHour="12.87" departLane="best" departPos="random" departSpeed="0" from="-55029244#0" to="23241821#0"/>
  <flow id="motorcycle_-55029244#0_198876042#0_000020f6" type="motorcycle" begin="0" end="3600" vehsPerHour="82.45" departLane="best" departPos="random" departSpeed="0" from="-55029244#0" to="198876042#0"/>
  <flow id="motorcycle_-55029244#0_193253427#0_000020f6" type="motorcycle" begin="0" end="3600" vehsPerHour="70.52" departLane="best" departPos="random" departSpeed="0" from="-55029244#0" to="193253427#0"/>
  <flow id="motorcycle_-55029244#0_198876043#2_000020f6" type="motorcycle" begin="0" end="3600" vehsPerHour="61.24" departLane="best" departPos="random" departSpeed="0" from="-55029244#0" to="198876043#2"/>
  <flow id="motorcycle_-55029244#0_28231434_000020f6" type="motorcycle" begin="0" end="3600" vehsPerHour="55.41" departLane="best" departPos="random" departSpeed="0" from="-55029244#0" to="28231434"/>
  <flow id="motorcycle_-55029244#0_23241821#0_000020f6" type="motorcycle" begin="0" end="3600" vehsPerHour="47.29" departLane="best" departPos="random" departSpeed="0" from="-55029244#0" to="23241821#0"/>
  <flow id="car_34241530#0_198876042#0_000020f6" type="car" begin="0" end="3600" vehsPerHour="28.16" departLane="best" departPos="random" departSpeed="0" from="34241530#0" to="198876042#0"/>
  <flow id="car_34241530#0_193253427#0_000020f6" type="car" begin="0" end="3600" vehsPerHour="23.40" departLane="best" departPos="random" departSpeed="0" from="34241530#0" to="193253427#0"/>
  <flow id="car_34241530#0_198876043#2_000020f6" type="car" begin="0" end="3600" vehsPerHour="19.30" departLane="best" departPos="random" departSpeed="0" from="34241530#0" to="198876043#2"/>
  <flow id="car_34241530#0_28231434_000020f6" type="car" begin="0" end="3600" vehsPerHour="17.25" departLane="best" departPos="random" departSpeed="0" from="34241530#0" to="28231434"/>
  <flow id="car_34241530#0_23241821#0_000020f6" type="car" begin="0" end="3600" vehsPerHour="13.86" departLane="best" departPos="random" departSpeed="0" from="34241530#0" to="23241821#0"/>
  <flow id="motorcycle_34241530#0_198876042#0_000020f6" type="motorcycle" begin="0" end="3600" vehsPerHour="77.74" departLane="best" departPos="random" departSpeed="0" from="34241530#0" to="198876042#0"/>
  <flow id="motorcycle_34241530#0_193253427#0_000020f6" type="motorcycle" begin="0" end="3600" vehsPerHour="67.82" departLane="best" departPos="random" departSpeed="0" from="34241530#0" to="193253427#0"/>
  <flow id="motorcycle_34241530#0_198876043#2_000020f6" type="motorcycle" begin="0" end="3600" vehsPerHour="61.48" departLane="best" departPos="random" departSpeed="0" from="34241530#0" to="198876043#2"/>
  <flow id="motorcycle_34241530#0_28231434_000020f6" type="motorcycle" begin="0" end="3600" vehsPerHour="53.13" departLane="best" departPos="random" departSpeed="0" from="34241530#0" to="28231434"/>
  <flow id="motorcycle_34241530#0_23241821#0_000020f6" type="motorcycle" begin="0" end="3600" vehsPerHour="46.43" departLane="best" departPos="random" departSpeed="0" from="34241530#0" to="23241821#0"/>
  <flow id="truck_34241530#0_198876042#0_000020f6" type="truck" begin="0" end="3600" vehsPerHour="11.90" departLane="best" departPos="random" departSpeed="0" from="34241530#0" to="198876042#0"/>
</routes>
