<routes>
<vType id="car" vClass="passenger" accel="2.6" decel="4.5" sigma="0.5" length="5.0" maxSpeed="13.9"/>
<vType id="motorcycle" vClass="motorcycle" accel="3.0" decel="5.0" sigma="0.5" length="2.0" maxSpeed="14.0"/>
<vType id="truck" vClass="truck" accel="1.2" decel="3.5" sigma="0.5" length="12.0" maxSpeed="10.0"/>

  <flow id="car_222682222#1_193253427#0_00085f92" type="car" begin="0" end="3600" vehsPerHour="58.95" departLane="best" departPos="random" departSpeed="0" from="222682222#1" to="193253427#0"/>
  <flow id="car_222682222#1_198876043#0_00085f92" type="car" begin="0" end="3600" vehsPerHour="48.70" departLane="best" departPos="random" departSpeed="0" from="222682222#1" to="198876043#0"/>
  <flow id="car_222682222#1_28231434_00085f92" type="car" begin="0" end="3600" vehsPerHour="51.00" departLane="best" departPos="random" departSpeed="0" from="222682222#1" to="28231434"/>
  <flow id="car_222682222#1_23241821#0_00085f92" type="car" begin="0" end="3600" vehsPerHour="38.90" departLane="best" departPos="random" departSpeed="0" from="222682222#1" to="23241821#0"/>
  <flow id="car_222682222#1_198876042#0_00085f92" type="car" begin="0" end="3600" vehsPerHour="33.56" departLane="best" departPos="random" departSpeed="0" from="222682222#1" to="198876042#0"/>
  <flow id="motorcycle_222682222#1_193253427#0_00085f92" type="motorcycle" begin="0" end="3600" vehsPerHour="170.32" departLane="best" departPos="random" departSpeed="0" from="222682222#1" to="193253427#0"/>
  <flow id="motorcycle_222682222#1_198876043#0_00085f92" type="motorcycle" begin="0" end="3600" vehsPerHour="149.55" departLane="best" departPos="random" departSpeed="0" from="222682222#1" to="198876043#0"/>
  <flow id="motorcycle_222682222#1_28231434_00085f92" type="motorcycle" begin="0" end="3600" vehsPerHour="141.68" departLane="best" departPos="random" departSpeed="0" from="222682222#1" to="28231434"/>
  <flow id="motorcycle_222682222#1_23241821#0_00085f92" type="motorcycle" begin="0" end="3600" vehsPerHour="118.05" departLane="best" departPos="random" departSpeed="0" from="222682222#1" to="23241821#0"/>
  <flow id="motorcycle_222682222#1_198876042#0_00085f92" type="motorcycle" begin="0" end="3600" vehsPerHour="97.05" departLane="best" departPos="random" departSpeed="0" from="222682222#1" to="198876042#0"/>
  <flow id="car_193253433#2_198876043#0_00085f92" type="car" begin="0" end="3600" vehsPerHour="39.24" departLane="best" departPos="random" departSpeed="0" from="193253433#2" to="198876043#0"/>
  <flow id="car_193253433#2_28231434_00085f92" type="car" begin="0" end="3600" vehsPerHour="35.26" departLane="best" departPos="random" departSpeed="0" from="193253433#2" to="28231434"/>
  <flow id="car_193253433#2_23241821#0_00085f92" type="car" begin="0" end="3600" vehsPerHour="32.45" departLane="best" departPos="random" departSpeed="0" from="193253433#2" to="23241821#0"/>
  <flow id="car_193253433#2_198876042#0_00085f92" type="car" begin="0" end="3600" vehsPerHour="28.30" departLane="best" departPos="random" departSpeed="0" from="193253433#2" to="198876042#0"/>
  <flow id="car_193253433#2_193253427#0_00085f92" type="car" begin="0" end="3600" vehsPerHour="24.21" departLane="best" departPos="random" departSpeed="0" from="193253433#2" to="193253427#0"/>
  <flow id="motorcycle_193253433#2_198876043#0_00085f92" type="motorcycle" begin="0" end="3600" vehsPerHour="115.03" departLane="best" departPos="random" departSpeed="0" from="193253433#2" to="198876043#0"/>
  <flow id="motorcycle_193253433#2_28231434_00085f92" type="motorcycle" begin="0" end="3600" vehsPerHour="103.19" departLane="best" departPos="random" departSpeed="0" from="193253433#2" to="28231434"/>
  <flow id="motorcycle_193253433#2_23241821#0_00085f92" type="motorcycle" begin="0" end="3600" vehsPerHour="89.95" departLane="best" departPos="random" departSpeed="0" from="193253433#2" to="23241821#0"/>
  <flow id="motorcycle_193253433#2_198876042#0_00085f92" type="motorcycle" begin="0" end="3600" vehsPerHour="78.21" departLane="best" departPos="random" departSpeed="0" from="193253433#2" to="198876042#0"/>
  <flow id="motorcycle_193253433#2_193253427#0_00085f92" type="motorcycle" begin="0" end="3600" vehsPerHour="65.68" departLane="best" departPos="random" departSpeed="0" from="193253433#2" to="193253427#0"/>
  <flow id="car_198876045#1_28231434_00085f92" type="car" begin="0" end="3600" vehsPerHour="35.36" departLane="best" departPos="random" departSpeed="0" from="198876045#1" to="28231434"/>
  <flow id="car_198876045#1_23241821#0_00085f92" type="car" begin="0" end="3600" vehsPerHour="30.83" departLane="best" departPos="random" departSpeed="0" from="198876045#1" to="23241821#0"/>
  <flow id="car_198876045#1_198876042#0_00085f92" type="car" begin="0" end="3600" vehsPerHour="27.96" departLane="best" departPos="random" departSpeed="0" from="198876045#1" to="198876042#0"/>
  <flow id="car_198876045#1_193253427#0_00085f92" type="car" begin="0" end="3600" vehsPerHour="23.46" departLane="best" departPos="random" departSpeed="0" from="198876045#1" to="193253427#0"/>
  <flow id="car_198876045#1_198876043#2_00085f92" type="car" begin="0" end="3600" vehsPerHour="19.98" departLane="best" departPos="random" departSpeed="0" from="198876045#1" to="198876043#2"/>
  <flow id="motorcycle_198876045#1_28231434_00085f92" type="motorcycle" begin="0" end="3600" vehsPerHour="97.37" departLane="best" departPos="random" departSpeed="0" from="198876045#1" to="28231434"/>
  <flow id="motorcycle_198876045#1_23241821#0_00085f92" type="motorcycle" begin="0" end="3600" vehsPerHour="87.56" departLane="best" departPos="random" departSpeed="0" from="198876045#1" to="23241821#0"/>
  <flow id="motorcycle_198876045#1_198876042#0_00085f92" type="motorcycle" begin="0" end="3600" vehsPerHour="83.56" departLane="best" departPos="random" departSpeed="0" from="198876045#1" to="198876042#0"/>
  <flow id="motorcycle_198876045#1_193253427#0_00085f92" type="motorcycle" begin="0" end="3600" vehsPerHour="75.98" departLane="best" departPos="random" departSpeed="0" from="198876045#1" to="193253427#0"/>
  <flow id="motorcycle_198876045#1_198876043#2_00085f92" type="motorcycle" begin="0" end="3600" vehsPerHour="69.36" departLane="best" departPos="random" departSpeed="0" from="198876045#1" to="198876043#2"/>
  <flow id="car_-28231434_23241821#0_00085f92" type="car" begin="0" end="3600" vehsPerHour="23.90" departLane="best" departPos="random" departSpeed="0" from="-28231434" to="23241821#0"/>
  <flow id="car_-28231434_198876042#0_00085f92" type="car" begin="0" end="3600" vehsPerHour="20.73" departLane="best" departPos="random" departSpeed="0" from="-28231434" to="198876042#0"/>
  <flow id="car_-28231434_193253427#0_00085f92" type="car" begin="0" end="3600" vehsPerHour="17.69" departLane="best" departPos="random" departSpeed="0" from="-28231434" to="193253427#0"/>
  <flow id="car_-28231434_198876043#2_00085f92" type="car" begin="0" end="3600" vehsPerHour="17.69" departLane="best" departPos="random" departSpeed="0" from="-28231434" to="198876043#2"/>
  <flow id="car_-28231434_28231434_00085f92" type="car" begin="0" end="3600" vehsPerHour="14.06" departLane="best" departPos="random" departSpeed="0" from="-28231434" to="28231434"/>
  <flow id="motorcycle_-28231434_23241821#0_00085f92" type="motorcycle" begin="0" end="3600" vehsPerHour="65.84" departLane="best" departPos="random" departSpeed="0" from="-28231434" to="23241821#0"/>
  <flow id="motorcycle_-28231434_198876042#0_00085f92" type="motorcycle" begin="0" end="3600" vehsPerHour="63.57" departLane="best" departPos="random" departSpeed="0" from="-28231434" to="198876042#0"/>
  <flow id="motorcycle_-28231434_193253427#0_00085f92" type="motorcycle" begin="0" end="3600" vehsPerHour="52.44" departLane="best" departPos="random" departSpeed="0" from="-28231434" to="193253427#0"/>
  <flow id="motorcycle_-28231434_198876043#2_00085f92" type="motorcycle" begin="0" end="3600" vehsPerHour="47.27" departLane="best" departPos="random" departSpeed="0" from="-28231434" to="198876043#2"/>
  <flow id="motorcycle_-28231434_28231434_00085f92" type="motorcycle" begin="0" end="3600" vehsPerHour="40.36" departLane="best" departPos="random" departSpeed="0" from="-28231434" to="28231434"/>
  <flow id="car_-55029244#0_198876042#0_00085f92" type="car" begin="0" end="3600" vehsPerHour="28.27" departLane="best" departPos="random" departSpeed="0" from="-55029244#0" to="198876042#0"/>
  <flow id="car_-55029244#0_193253427#0_00085f92" type="car" begin="0" end="3600" vehsPerHour="24.72" departLane="best" departPos="random" departSpeed="0" from="-55029244#0" to="193253427#0"/>
  <flow id="car_-55029244#0_198876043#2_00085f92" type="car" begin="0" end="3600" vehsPerHour="20.51" departLane="best" departPos="random" departSpeed="0" from="-55029244#0" to="198876043#2"/>
  <flow id="car_-55029244#0_28231434_00085f92" type="car" begin="0" end="3600" vehsPerHour="17.38" departLane="best" departPos="random" departSpeed="0" from="-55029244#0" to="28231434"/>
  <flow id="car_-55029244#0_23241821#0_00085f92" type="car" begin="0" end="3600" vehsPerHour="13.37" departLane="best" departPos="random" departSpeed="0" from="-55029244#0" to="23241821#0"/>
  <flow id="motorcycle_-55029244#0_198876042#0_00085f92" type="motorcycle" begin="0" end="3600" vehsPerHour="80.15" departLane="best" departPos="random" departSpeed="0" from="-55029244#0" to="198876042#0"/>
  <flow id="motorcycle_-55029244#0_193253427#0_00085f92" type="motorcycle" begin="0" end="3600" vehsPerHour="66.88" departLane="best" departPos="random" departSpeed="0" from="-55029244#0" to="193253427#0"/>
  <flow id="motorcycle_-55029244#0_198876043#2_00085f92" type="motorcycle" begin="0" end="3600" vehsPerHour="60.75" departLane="best" departPos="random" departSpeed="0" from="-55029244#0" to="198876043#2"/>
  <flow id="motorcycle_-55029244#0_28231434_00085f92" type="motorcycle" begin="0" end="3600" vehsPerHour="55.47" departLane="best" departPos="random" departSpeed="0" from="-55029244#0" to="28231434"/>
  <flow id="motorcycle_-55029244#0_23241821#0_00085f92" type="motorcycle" begin="0" end="3600" vehsPerHour="45.82" departLane="best" departPos="random" departSpeed="0" from="-55029244#0" to="23241821#0"/>
  <flow id="car_34241530#0_198876042#0_00085f92" type="car" begin="0" end="3600" vehsPerHour="26.86" departLane="best" departPos="random" departSpeed="0" from="34241530#0" to="198876042#0"/>
  <flow id="car_34241530#0_193253427#0_00085f92" type="car" begin="0" end="3600" vehsPerHour="22.45" departLane="best" departPos="random" departSpeed="0" from="34241530#0" to="193253427#0"/>
  <flow id="car_34241530#0_198876043#2_00085f92" type="car" begin="0" end="3600" vehsPerHour="19.49" departLane="best" departPos="random" departSpeed="0" from="34241530#0" to="198876043#2"/>
  <flow id="car_34241530#0_28231434_00085f92" type="car" begin="0" end="3600" vehsPerHour="16.92" departLane="best" departPos="random" departSpeed="0" from="34241530#0" to="28231434"/>
  <flow id="car_34241530#0_23241821#0_00085f92" type="car" begin="0" end="3600" vehsPerHour="12.90" departLane="best" departPos="random" departSpeed="0" from="34241530#0" to="23241821#0"/>
  <flow id="motorcycle_34241530#0_198876042#0_00085f92" type="motorcycle" begin="0" end="3600" vehsPerHour="80.86" departLane="best" departPos="random" departSpeed="0" from="34241530#0" to="198876042#0"/>
  <flow id="motorcycle_34241530#0_193253427#0_00085f92" type="motorcycle" begin="0" end="3600" vehsPerHour="69.49" departLane="best" departPos="random" departSpeed="0" from="34241530#0" to="193253427#0"/>
  <flow id="motorcycle_34241530#0_198876043#2_00085f92" type="motorcycle" begin="0" end="3600" vehsPerHour="59.33" departLane="best" departPos="random" departSpeed="0" from="34241530#0" to="198876043#2"/>
  <flow id="motorcycle_34241530#0_28231434_00085f92" type="motorcycle" begin="0" end="3600" vehsPerHour="55.61" departLane="best" departPos="random" departSpeed="0" from="34241530#0" to="28231434"/>
  <flow id="motorcycle_34241530#0_23241821#0_00085f92" type="motorcycle" begin="0" end="3600" vehsPerHour="48.53" departLane="best" departPos="random" departSpeed="0" from="34241530#0" to="23241821#0"/>
  <flow id="truck_34241530#0_198876042#0_00085f92" type="truck" begin="0" end="3600" vehsPerHour="12.14" departLane="best" departPos="random" departSpeed="0" from="34241530#0" to="198876042#0"/>
</routes>
