<routes>
<vType id="car" vClass="passenger" accel="2.6" decel="4.5" sigma="0.5" length="5.0" maxSpeed="13.9"/>
<vType id="motorcycle" vClass="motorcycle" accel="3.0" decel="5.0" sigma="0.5" length="2.0" maxSpeed="14.0"/>
<vType id="truck" vClass="truck" accel="1.2" decel="3.5" sigma="0.5" length="12.0" maxSpeed="10.0"/>

  <flow id="car_222682222#1_193253427#0_00072c9f" type="car" begin="0" end="3600" vehsPerHour="59.15" departLane="best" departPos="random" departSpeed="0" from="222682222#1" to="193253427#0"/>
  <flow id="car_222682222#1_198876043#0_00072c9f" type="car" begin="0" end="3600" vehsPerHour="48.13" departLane="best" departPos="random" departSpeed="0" from="222682222#1" to="198876043#0"/>
  <flow id="car_222682222#1_28231434_00072c9f" type="car" begin="0" end="3600" vehsPerHour="49.68" departLane="best" departPos="random" departSpeed="0" from="222682222#1" to="28231434"/>
  <flow id="car_222682222#1_23241821#0_00072c9f" type="car" begin="0" end="3600" vehsPerHour="39.65" departLane="best" departPos="random" departSpeed="0" from="222682222#1" to="23241821#0"/>
  <flow id="car_222682222#1_198876042#0_00072c9f" type="car" begin="0" end="3600" vehsPerHour="34.16" departLane="best" departPos="random" departSpeed="0" from="222682222#1" to="198876042#0"/>
  <flow id="motorcycle_222682222#1_193253427#0_00072c9f" type="motorcycle" begin="0" end="3600" vehsPerHour="170.89" departLane="best" departPos="random" departSpeed="0" from="222682222#1" to="193253427#0"/>
  <flow id="motorcycle_222682222#1_198876043#0_00072c9f" type="motorcycle" begin="0" end="3600" vehsPerHour="160.61" departLane="best" departPos="random" departSpeed="0" from="222682222#1" to="198876043#0"/>
  <flow id="motorcycle_222682222#1_28231434_00072c9f" type="motorcycle" begin="0" end="3600" vehsPerHour="145.44" departLane="best" departPos="random" departSpeed="0" from="222682222#1" to="28231434"/>
  <flow id="motorcycle_222682222#1_23241821#0_00072c9f" type="motorcycle" begin="0" end="3600" vehsPerHour="110.49" departLane="best" departPos="random" departSpeed="0" from="222682222#1" to="23241821#0"/>
  <flow id="motorcycle_222682222#1_198876042#0_00072c9f" type="motorcycle" begin="0" end="3600" vehsPerHour="100.11" departLane="best" departPos="random" departSpeed="0" from="222682222#1" to="198876042#0"/>
  <flow id="car_193253433#2_198876043#0_00072c9f" type="car" begin="0" end="3600" vehsPerHour="39.28" departLane="best" departPos="random" departSpeed="0" from="193253433#2" to="198876043#0"/>
  <flow id="car_193253433#2_28231434_00072c9f" type="car" begin="0" end="3600" vehsPerHour="33.58" departLane="best" departPos="random" departSpeed="0" from="193253433#2" to="28231434"/>
  <flow id="car_193253433#2_23241821#0_00072c9f" type="car" begin="0" end="3600" vehsPerHour="33.69" departLane="best" departPos="random" departSpeed="0" from="193253433#2" to="23241821#0"/>
  <flow id="car_193253433#2_198876042#0_00072c9f" type="car" begin="0" end="3600" vehsPerHour="27.91" departLane="best" departPos="random" departSpeed="0" from="193253433#2" to="198876042#0"/>
  <flow id="car_193253433#2_193253427#0_00072c9f" type="car" begin="0" end="3600" vehsPerHour="22.58" departLane="best" departPos="random" departSpeed="0" from="193253433#2" to="193253427#0"/>
  <flow id="motorcycle_193253433#2_198876043#0_00072c9f" type="motorcycle" begin="0" end="3600" vehsPerHour="116.28" departLane="best" departPos="random" departSpeed="0" from="193253433#2" to="198876043#0"/>
  <flow id="motorcycle_193253433#2_28231434_00072c9f" type="motorcycle" begin="0" end="3600" vehsPerHour="97.44" departLane="best" departPos="random" departSpeed="0" from="193253433#2" to="28231434"/>
  <flow id="motorcycle_193253433#2_23241821#0_00072c9f" type="motorcycle" begin="0" end="3600" vehsPerHour="89.67" departLane="best" departPos="random" departSpeed="0" from="193253433#2" to="23241821#0"/>
  <flow id="motorcycle_193253433#2_198876042#0_00072c9f" type="motorcycle" begin="0" end="3600" vehsPerHour="77.31" departLane="best" departPos="random" departSpeed="0" from="193253433#2" to="198876042#0"/>
  <flow id="motorcycle_193253433#2_193253427#0_00072c9f" type="motorcycle" begin="0" end="3600" vehsPerHour="69.80" departLane="best" departPos="random" departSpeed="0" from="193253433#2" to="193253427#0"/>
  <flow id="car_198876045#1_28231434_00072c9f" type="car" begin="0" end="3600" vehsPerHour="32.33" departLane="best" departPos="random" departSpeed="0" from="198876045#1" to="28231434"/>
  <flow id="car_198876045#1_23241821#0_00072c9f" type="car" begin="0" end="3600" vehsPerHour="31.76" departLane="best" departPos="random" departSpeed="0" from="198876045#1" to="23241821#0"/>
  <flow id="car_198876045#1_198876042#0_00072c9f" type="car" begin="0" end="3600" vehsPerHour="27.47" departLane="best" departPos="random" departSpeed="0" from="198876045#1" to="198876042#0"/>
  <flow id="car_198876045#1_193253427#0_00072c9f" type="car" begin="0" end="3600" vehsPerHour="23.53" departLane="best" departPos="random" departSpeed="0" from="198876045#1" to="193253427#0"/>
  <flow id="car_198876045#1_198876043#2_00072c9f" type="car" begin="0" end="3600" vehsPerHour="20.57" departLane="best" departPos="random" departSpeed="0" from="198876045#1" to="198876043#2"/>
  <flow id="motorcycle_198876045#1_28231434_00072c9f" type="motorcycle" begin="0" end="3600" vehsPerHour="102.26" departLane="best" departPos="random" departSpeed="0" from="198876045#1" to="28231434"/>
  <flow id="motorcycle_198876045#1_23241821#0_00072c9f" type="motorcycle" begin="0" end="3600" vehsPerHour="83.75" departLane="best" departPos="random" departSpeed="0" from="198876045#1" to="23241821#0"/>
  <flow id="motorcycle_198876045#1_198876042#0_00072c9f" type="motorcycle" begin="0" end="3600" vehsPerHour="79.89" departLane="best" departPos="random" departSpeed="0" from="198876045#1" to="198876042#0"/>
  <flow id="motorcycle_198876045#1_193253427#0_00072c9f" type="motorcycle" begin="0" end="3600" vehsPerHour="72.92" departLane="best" departPos="random" departSpeed="0" from="198876045#1" to="193253427#0"/>
  <flow id="motorcycle_198876045#1_198876043#2_00072c9f" type="motorcycle" begin="0" end="3600" vehsPerHour="69.59" departLane="best" departPos="random" departSpeed="0" from="198876045#1" to="198876043#2"/>
  <flow id="car_-28231434_23241821#0_00072c9f" type="car" begin="0" end="3600" vehsPerHour="22.72" departLane="best" departPos="random" departSpeed="0" from="-28231434" to="23241821#0"/>
  <flow id="car_-28231434_198876042#0_00072c9f" type="car" begin="0" end="3600" vehsPerHour="20.59" departLane="best" departPos="random" departSpeed="0" from="-28231434" to="198876042#0"/>
  <flow id="car_-28231434_193253427#0_00072c9f" type="car" begin="0" end="3600" vehsPerHour="16.25" departLane="best" departPos="random" departSpeed="0" from="-28231434" to="193253427#0"/>
  <flow id="car_-28231434_198876043#2_00072c9f" type="car" begin="0" end="3600" vehsPerHour="17.52" departLane="best" departPos="random" departSpeed="0" from="-28231434" to="198876043#2"/>
  <flow id="car_-28231434_28231434_00072c9f" type="car" begin="0" end="3600" vehsPerHour="13.04" departLane="best" departPos="random" departSpeed="0" from="-28231434" to="28231434"/>
  <flow id="motorcycle_-28231434_23241821#0_00072c9f" type="motorcycle" begin="0" end="3600" vehsPerHour="70.01" departLane="best" departPos="random" departSpeed="0" from="-28231434" to="23241821#0"/>
  <flow id="motorcycle_-28231434_198876042#0_00072c9f" type="motorcycle" begin="0" end="3600" vehsPerHour="58.38" departLane="best" departPos="random" departSpeed="0" from="-28231434" to="198876042#0"/>
  <flow id="motorcycle_-28231434_193253427#0_00072c9f" type="motorcycle" begin="0" end="3600" vehsPerHour="53.07" departLane="best" departPos="random" departSpeed="0" from="-28231434" to="193253427#0"/>
  <flow id="motorcycle_-28231434_198876043#2_00072c9f" type="motorcycle" begin="0" end="3600" vehsPerHour="46.86" departLane="best" departPos="random" departSpeed="0" from="-28231434" to="198876043#2"/>
  <flow id="motorcycle_-28231434_28231434_00072c9f" type="motorcycle" begin="0" end="3600" vehsPerHour="40.33" departLane="best" departPos="random" departSpeed="0" from="-28231434" to="28231434"/>
  <flow id="car_-55029244#0_198876042#0_00072c9f" type="car" begin="0" end="3600" vehsPerHour="25.76" departLane="best" departPos="random" departSpeed="0" from="-55029244#0" to="198876042#0"/>
  <flow id="car_-55029244#0_193253427#0_00072c9f" type="car" begin="0" end="3600" vehsPerHour="23.99" departLane="best" departPos="random" departSpeed="0" from="-55029244#0" to="193253427#0"/>
  <flow id="car_-55029244#0_198876043#2_00072c9f" type="car" begin="0" end="3600" vehsPerHour="21.08" departLane="best" departPos="random" departSpeed="0" from="-55029244#0" to="198876043#2"/>
  <flow id="car_-55029244#0_28231434_00072c9f" type="car" begin="0" end="3600" vehsPerHour="16.74" departLane="best" departPos="random" departSpeed="0" from="-55029244#0" to="28231434"/>
  <flow id="car_-55029244#0_23241821#0_00072c9f" type="car" begin="0" end="3600" vehsPerHour="13.23" departLane="best" departPos="random" departSpeed="0" from="-55029244#0" to="23241821#0"/>
  <flow id="motorcycle_-55029244#0_198876042#0_00072c9f" type="motorcycle" begin="0" end="3600" vehsPerHour="84.52" departLane="best" departPos="random" departSpeed="0" from="-55029244#0" to="198876042#0"/>
  <flow id="motorcycle_-55029244#0_193253427#0_00072c9f" type="motorcycle" begin="0" end="3600" vehsPerHour="65.25" departLane="best" departPos="random" departSpeed="0" from="-55029244#0" to="193253427#0"/>
  <flow id="motorcycle_-55029244#0_198876043#2_00072c9f" type="motorcycle" begin="0" end="3600" vehsPerHour="61.32" departLane="best" departPos="random" departSpeed="0" from="-55029244#0" to="198876043#2"/>
  <flow id="motorcycle_-55029244#0_28231434_00072c9f" type="motorcycle" begin="0" end="3600" vehsPerHour="53.38" departLane="best" departPos="random" departSpeed="0" from="-55029244#0" to="28231434"/>
  <flow id="motorcycle_-55029244#0_23241821#0_00072c9f" type="motorcycle" begin="0" end="3600" vehsPerHour="48.95" departLane="best" departPos="random" departSpeed="0" from="-55029244#0" to="23241821#0"/>
  <flow id="car_34241530#0_198876042#0_00072c9f" type="car" begin="0" end="3600" vehsPerHour="25.70" departLane="best" departPos="random" departSpeed="0" from="34241530#0" to="198876042#0"/>
  <flow id="car_34241530#0_193253427#0_00072c9f" type="car" begin="0" end="3600" vehsPerHour="23.97" departLane="best" departPos="random" departSpeed="0" from="34241530#0" to="193253427#0"/>
  <flow id="car_34241530#0_198876043#2_00072c9f" type="car" begin="0" end="3600" vehsPerHour="19.78" departLane="best" departPos="random" departSpeed="0" from="34241530#0" to="198876043#2"/>
  <flow id="car_34241530#0_28231434_00072c9f" type="car" begin="0" end="3600" vehsPerHour="16.29" departLane="best" departPos="random" departSpeed="0" from="34241530#0" to="28231434"/>
  <flow id="car_34241530#0_23241821#0_00072c9f" type="car" begin="0" end="3600" vehsPerHour="13.64" departLane="best" departPos="random" departSpeed="0" from="34241530#0" to="23241821#0"/>
  <flow id="motorcycle_34241530#0_198876042#0_00072c9f" type="motorcycle" begin="0" end="3600" vehsPerHour="78.24" departLane="best" departPos="random" departSpeed="0" from="34241530#0" to="198876042#0"/>
  <flow id="motorcycle_34241530#0_193253427#0_00072c9f" type="motorcycle" begin="0" end="3600" vehsPerHour="66.51" departLane="best" departPos="random" departSpeed="0" from="34241530#0" to="193253427#0"/>
  <flow id="motorcycle_34241530#0_198876043#2_00072c9f" type="motorcycle" begin="0" end="3600" vehsPerHour="60.12" departLane="best" departPos="random" departSpeed="0" from="34241530#0" to="198876043#2"/>
  <flow id="motorcycle_34241530#0_28231434_00072c9f" type="motorcycle" begin="0" end="3600" vehsPerHour="51.35" departLane="best" departPos="random" departSpeed="0" from="34241530#0" to="28231434"/>
  <flow id="motorcycle_34241530#0_23241821#0_00072c9f" type="motorcycle" begin="0" end="3600" vehsPerHour="48.77" departLane="best" departPos="random" departSpeed="0" from="34241530#0" to="23241821#0"/>
  <flow id="truck_34241530#0_198876042#0_00072c9f" type="truck" begin="0" end="3600" vehsPerHour="11.48" departLane="best" departPos="random" departSpeed="0" from="34241530#0" to="198876042#0"/>
</routes>
