<routes>
<vType id="car" vClass="passenger" accel="2.6" decel="4.5" sigma="0.5" length="5.0" maxSpeed="13.9"/>
<vType id="motorcycle" vClass="motorcycle" accel="3.0" decel="5.0" sigma="0.5" length="2.0" maxSpeed="14.0"/>
<vType id="truck" vClass="truck" accel="1.2" decel="3.5" sigma="0.5" length="12.0" maxSpeed="10.0"/>

  <flow id="car_222682222#1_193253427#0_000c62c9" type="car" begin="0" end="3600" vehsPerHour="58.50" departLane="best" departPos="random" departSpeed="0" from="222682222#1" to="193253427#0"/>
  <flow id="car_222682222#1_198876043#0_000c62c9" type="car" begin="0" end="3600" vehsPerHour="49.38" departLane="best" departPos="random" departSpeed="0" from="222682222#1" to="198876043#0"/>
  <flow id="car_222682222#1_28231434_000c62c9" type="car" begin="0" end="3600" vehsPerHour="49.39" departLane="best" departPos="random" departSpeed="0" from="222682222#1" to="28231434"/>
  <flow id="car_222682222#1_23241821#0_000c62c9" type="car" begin="0" end="3600" vehsPerHour="40.91" departLane="best" departPos="random" departSpeed="0" from="222682222#1" to="23241821#0"/>
  <flow id="car_222682222#1_198876042#0_000c62c9" type="car" begin="0" end="3600" vehsPerHour="34.99" departLane="best" departPos="random" departSpeed="0" from="222682222#1" to="198876042#0"/>
  <flow id="motorcycle_222682222#1_193253427#0_000c62c9" type="motorcycle" begin="0" end="3600" vehsPerHour="175.34" departLane="best" departPos="random" departSpeed="0" from="222682222#1" to="193253427#0"/>
  <flow id="motorcycle_222682222#1_198876043#0_000c62c9" type="motorcycle" begin="0" end="3600" vehsPerHour="162.37" departLane="best" departPos="random" departSpeed="0" from="222682222#1" to="198876043#0"/>
  <flow id="motorcycle_222682222#1_28231434_000c62c9" type="motorcycle" begin="0" end="3600" vehsPerHour="137.15" departLane="best" departPos="random" departSpeed="0" from="222682222#1" to="28231434"/>
  <flow id="motorcycle_222682222#1_23241821#0_000c62c9" type="motorcycle" begin="0" end="3600" vehsPerHour="113.87" departLane="best" departPos="random" departSpeed="0" from="222682222#1" to="23241821#0"/>
  <flow id="motorcycle_222682222#1_198876042#0_000c62c9" type="motorcycle" begin="0" end="3600" vehsPerHour="97.20" departLane="best" departPos="random" departSpeed="0" from="222682222#1" to="198876042#0"/>
  <flow id="car_193253433#2_198876043#0_000c62c9" type="car" begin="0" end="3600" vehsPerHour="38.87" departLane="best" departPos="random" departSpeed="0" from="193253433#2" to="198876043#0"/>
  <flow id="car_193253433#2_28231434_000c62c9" type="car" begin="0" end="3600" vehsPerHour="33.83" departLane="best" departPos="random" departSpeed="0" from="193253433#2" to="28231434"/>
  <flow id="car_193253433#2_23241821#0_000c62c9" type="car" begin="0" end="3600" vehsPerHour="32.71" departLane="best" departPos="random" departSpeed="0" from="193253433#2" to="23241821#0"/>
  <flow id="car_193253433#2_198876042#0_000c62c9" type="car" begin="0" end="3600" vehsPerHour="27.02" departLane="best" departPos="random" departSpeed="0" from="193253433#2" to="198876042#0"/>
  <flow id="car_193253433#2_193253427#0_000c62c9" type="car" begin="0" end="3600" vehsPerHour="22.77" departLane="best" departPos="random" departSpeed="0" from="193253433#2" to="193253427#0"/>
  <flow id="motorcycle_193253433#2_198876043#0_000c62c9" type="motorcycle" begin="0" end="3600" vehsPerHour="119.40" departLane="best" departPos="random" departSpeed="0" from="193253433#2" to="198876043#0"/>
  <flow id="motorcycle_193253433#2_28231434_000c62c9" type="motorcycle" begin="0" end="3600" vehsPerHour="103.59" departLane="best" departPos="random" departSpeed="0" from="193253433#2" to="28231434"/>
  <flow id="motorcycle_193253433#2_23241821#0_000c62c9" type="motorcycle" begin="0" end="3600" vehsPerHour="94.42" departLane="best" departPos="random" departSpeed="0" from="193253433#2" to="23241821#0"/>
  <flow id="motorcycle_193253433#2_198876042#0_000c62c9" type="motorcycle" begin="0" end="3600" vehsPerHour="84.07" departLane="best" departPos="random" departSpeed="0" from="193253433#2" to="198876042#0"/>
  <flow id="motorcycle_193253433#2_193253427#0_000c62c9" type="motorcycle" begin="0" end="3600" vehsPerHour="67.23" departLane="best" departPos="random" departSpeed="0" from="193253433#2" to="193253427#0"/>
  <flow id="car_198876045#1_28231434_000c62c9" type="car" begin="0" end="3600" vehsPerHour="34.87" departLane="best" departPos="random" departSpeed="0" from="198876045#1" to="28231434"/>
  <flow id="car_198876045#1_23241821#0_000c62c9" type="car" begin="0" end="3600" vehsPerHour="30.81" departLane="best" departPos="random" departSpeed="0" from="198876045#1" to="23241821#0"/>
  <flow id="car_198876045#1_198876042#0_000c62c9" type="car" begin="0" end="3600" vehsPerHour="26.68" departLane="best" departPos="random" departSpeed="0" from="198876045#1" to="198876042#0"/>
  <flow id="car_198876045#1_193253427#0_000c62c9" type="car" begin="0" end="3600" vehsPerHour="23.55" departLane="best" departPos="random" departSpeed="0" from="198876045#1" to="193253427#0"/>
  <flow id="car_198876045#1_198876043#2_000c62c9" type="car" begin="0" end="3600" vehsPerHour="20.18" departLane="best" departPos="random" departSpeed="0" from="198876045#1" to="198876043#2"/>
  <flow id="motorcycle_198876045#1_28231434_000c62c9" type="motorcycle" begin="0" end="3600" vehsPerHour="104.20" departLane="best" departPos="random" departSpeed="0" from="198876045#1" to="28231434"/>
  <flow id="motorcycle_198876045#1_23241821#0_000c62c9" type="motorcycle" begin="0" end="3600" vehsPerHour="85.29" departLane="best" departPos="random" departSpeed="0" from="198876045#1" to="23241821#0"/>
  <flow id="motorcycle_198876045#1_198876042#0_000c62c9" type="motorcycle" begin="0" end="3600" vehsPerHour="78.21" departLane="best" departPos="random" departSpeed="0" from="198876045#1" to="198876042#0"/>
  <flow id="motorcycle_198876045#1_193253427#0_000c62c9" type="motorcycle" begin="0" end="3600" vehsPerHour="77.74" departLane="best" departPos="random" departSpeed="0" from="198876045#1" to="193253427#0"/>
  <flow id="motorcycle_198876045#1_198876043#2_000c62c9" type="motorcycle" begin="0" end="3600" vehsPerHour="70.02" departLane="best" departPos="random" departSpeed="0" from="198876045#1" to="198876043#2"/>
  <flow id="car_-28231434_23241821#0_000c62c9" type="car" begin="0" end="3600" vehsPerHour="24.33" departLane="best" departPos="random" departSpeed="0" from="-28231434" to="23241821#0"/>
  <flow id="car_-28231434_198876042#0_000c62c9" type="car" begin="0" end="3600" vehsPerHour="21.00" departLane="best" departPos="random" departSpeed="0" from="-28231434" to="198876042#0"/>
  <flow id="car_-28231434_193253427#0_000c62c9" type="car" begin="0" end="3600" vehsPerHour="17.08" departLane="best" departPos="random" departSpeed="0" from="-28231434" to="193253427#0"/>
  <flow id="car_-28231434_198876043#2_000c62c9" type="car" begin="0" end="3600" vehsPerHour="16.73" departLane="best" departPos="random" departSpeed="0" from="-28231434" to="198876043#2"/>
  <flow id="car_-28231434_28231434_000c62c9" type="car" begin="0" end="3600" vehsPerHour="14.10" departLane="best" departPos="random" departSpeed="0" from="-28231434" to="28231434"/>
  <flow id="motorcycle_-28231434_23241821#0_000c62c9" type="motorcycle" begin="0" end="3600" vehsPerHour="69.07" departLane="best" departPos="random" departSpeed="0" from="-28231434" to="23241821#0"/>
  <flow id="motorcycle_-28231434_198876042#0_000c62c9" type="motorcycle" begin="0" end="3600" vehsPerHour="63.37" departLane="best" departPos="random" departSpeed="0" from="-28231434" to="198876042#0"/>
  <flow id="motorcycle_-28231434_193253427#0_000c62c9" type="motorcycle" begin="0" end="3600" vehsPerHour="55.84" departLane="best" departPos="random" departSpeed="0" from="-28231434" to="193253427#0"/>
  <flow id="motorcycle_-28231434_198876043#2_000c62c9" type="motorcycle" begin="0" end="3600" vehsPerHour="46.03" departLane="best" departPos="random" departSpeed="0" from="-28231434" to="198876043#2"/>
  <flow id="motorcycle_-28231434_28231434_000c62c9" type="motorcycle" begin="0" end="3600" vehsPerHour="40.57" departLane="best" departPos="random" departSpeed="0" from="-28231434" to="28231434"/>
  <flow id="car_-55029244#0_198876042#0_000c62c9" type="car" begin="0" end="3600" vehsPerHour="27.42" departLane="best" departPos="random" departSpeed="0" from="-55029244#0" to="198876042#0"/>
  <flow id="car_-55029244#0_193253427#0_000c62c9" type="car" begin="0" end="3600" vehsPerHour="22.58" departLane="best" departPos="random" departSpeed="0" from="-55029244#0" to="193253427#0"/>
  <flow id="car_-55029244#0_198876043#2_000c62c9" type="car" begin="0" end="3600" vehsPerHour="20.43" departLane="best" departPos="random" departSpeed="0" from="-55029244#0" to="198876043#2"/>
  <flow id="car_-55029244#0_28231434_000c62c9" type="car" begin="0" end="3600" vehsPerHour="16.76" departLane="best" departPos="random" departSpeed="0" from="-55029244#0" to="28231434"/>
  <flow id="car_-55029244#0_23241821#0_000c62c9" type="car" begin="0" end="3600" vehsPerHour="13.19" departLane="best" departPos="random" departSpeed="0" from="-55029244#0" to="23241821#0"/>
  <flow id="motorcycle_-55029244#0_198876042#0_000c62c9" type="motorcycle" begin="0" end="3600" vehsPerHour="79.37" departLane="best" departPos="random" departSpeed="0" from="-55029244#0" to="198876042#0"/>
  <flow id="motorcycle_-55029244#0_193253427#0_000c62c9" type="motorcycle" begin="0" end="3600" vehsPerHour="68.68" departLane="best" departPos="random" departSpeed="0" from="-55029244#0" to="193253427#0"/>
  <flow id="motorcycle_-55029244#0_198876043#2_000c62c9" type="motorcycle" begin="0" end="3600" vehsPerHour="59.44" departLane="best" departPos="random" departSpeed="0" from="-55029244#0" to="198876043#2"/>
  <flow id="motorcycle_-55029244#0_28231434_000c62c9" type="motorcycle" begin="0" end="3600" vehsPerHour="55.09" departLane="best" departPos="random" departSpeed="0" from="-55029244#0" to="28231434"/>
  <flow id="motorcycle_-55029244#0_23241821#0_000c62c9" type="motorcycle" begin="0" end="3600" vehsPerHour="45.81" departLane="best" departPos="random" departSpeed="0" from="-55029244#0" to="23241821#0"/>
  <flow id="car_34241530#0_198876042#0_000c62c9" type="car" begin="0" end="3600" vehsPerHour="26.54" departLane="best" departPos="random" departSpeed="0" from="34241530#0" to="198876042#0"/>
  <flow id="car_34241530#0_193253427#0_000c62c9" type="car" begin="0" end="3600" vehsPerHour="23.22" departLane="best" departPos="random" departSpeed="0" from="34241530#0" to="193253427#0"/>
  <flow id="car_34241530#0_198876043#2_000c62c9" type="car" begin="0" end="3600" vehsPerHour="20.84" departLane="best" departPos="random" departSpeed="0" from="34241530#0" to="198876043#2"/>
  <flow id="car_34241530#0_28231434_000c62c9" type="car" begin="0" end="3600" vehsPerHour="17.08" departLane="best" departPos="random" departSpeed="0" from="34241530#0" to="28231434"/>
  <flow id="car_34241530#0_23241821#0_000c62c9" type="car" begin="0" end="3600" vehsPerHour="12.81" departLane="best" departPos="random" departSpeed="0" from="34241530#0" to="23241821#0"/>
  <flow id="motorcycle_34241530#0_198876042#0_000c62c9" type="motorcycle" begin="0" end="3600" vehsPerHour="84.57" departLane="best" departPos="random" departSpeed="0" from="34241530#0" to="198876042#0"/>
  <flow id="motorcycle_34241530#0_193253427#0_000c62c9" type="motorcycle" begin="0" end="3600" vehsPerHour="67.25" departLane="best" departPos="random" departSpeed="0" from="34241530#0" to="193253427#0"/>
  <flow id="motorcycle_34241530#0_198876043#2_000c62c9" type="motorcycle" begin="0" end="3600" vehsPerHour="58.17" departLane="best" departPos="random" departSpeed="0" from="34241530#0" to="198876043#2"/>
  <flow id="motorcycle_34241530#0_28231434_000c62c9" type="motorcycle" begin="0" end="3600" vehsPerHour="55.66" departLane="best" departPos="random" departSpeed="0" from="34241530#0" to="28231434"/>
  <flow id="motorcycle_34241530#0_23241821#0_000c62c9" type="motorcycle" begin="0" end="3600" vehsPerHour="47.04" departLane="best" departPos="random" departSpeed="0" from="34241530#0" to="23241821#0"/>
  <flow id="truck_34241530#0_198876042#0_000c62c9" type="truck" begin="0" end="3600" vehsPerHour="11.89" departLane="best" departPos="random" departSpeed="0" from="34241530#0" to="198876042#0"/>
</routes>
