<routes>
<vType id="car" vClass="passenger" accel="2.6" decel="4.5" sigma="0.5" length="5.0" maxSpeed="13.9"/>
<vType id="motorcycle" vClass="motorcycle" accel="3.0" decel="5.0" sigma="0.5" length="2.0" maxSpeed="14.0"/>
<vType id="truck" vClass="truck" accel="1.2" decel="3.5" sigma="0.5" length="12.0" maxSpeed="10.0"/>

  <flow id="car_222682222#1_193253427#0_0008a091" type="car" begin="0" end="3600" vehsPerHour="60.06" departLane="best" departPos="random" departSpeed="0" from="222682222#1" to="193253427#0"/>
  <flow id="car_222682222#1_198876043#0_0008a091" type="car" begin="0" end="3600" vehsPerHour="49.01" departLane="best" departPos="random" departSpeed="0" from="222682222#1" to="198876043#0"/>
  <flow id="car_222682222#1_28231434_0008a091" type="car" begin="0" end="3600" vehsPerHour="50.60" departLane="best" departPos="random" departSpeed="0" from="222682222#1" to="28231434"/>
  <flow id="car_222682222#1_23241821#0_0008a091" type="car" begin="0" end="3600" vehsPerHour="41.30" departLane="best" departPos="random" departSpeed="0" from="222682222#1" to="23241821#0"/>
  <flow id="car_222682222#1_198876042#0_0008a091" type="car" begin="0" end="3600" vehsPerHour="33.60" departLane="best" departPos="random" departSpeed="0" from="222682222#1" to="198876042#0"/>
  <flow id="motorcycle_222682222#1_193253427#0_0008a091" type="motorcycle" begin="0" end="3600" vehsPerHour="180.71" departLane="best" departPos="random" departSpeed="0" from="222682222#1" to="193253427#0"/>
  <flow id="motorcycle_222682222#1_198876043#0_0008a091" type="motorcycle" begin="0" end="3600" vehsPerHour="147.61" departLane="best" departPos="random" departSpeed="0" from="222682222#1" to="198876043#0"/>
  <flow id="motorcycle_222682222#1_28231434_0008a091" type="motorcycle" begin="0" end="3600" vehsPerHour="136.32" departLane="best" departPos="random" departSpeed="0" from="222682222#1" to="28231434"/>
  <flow id="motorcycle_222682222#1_23241821#0_0008a091" type="motorcycle" begin="0" end="3600" vehsPerHour="117.90" departLane="best" departPos="random" departSpeed="0" from="222682222#1" to="23241821#0"/>
  <flow id="motorcycle_222682222#1_198876042#0_0008a091" type="motorcycle" begin="0" end="3600" vehsPerHour="104.63" departLane="best" departPos="random" departSpeed="0" from="222682222#1" to="198876042#0"/>
  <flow id="car_193253433#2_198876043#0_0008a091" type="car" begin="0" end="3600" vehsPerHour="40.81" departLane="best" departPos="random" departSpeed="0" from="193253433#2" to="198876043#0"/>
  <flow id="car_193253433#2_28231434_0008a091" type="car" begin="0" end="3600" vehsPerHour="34.41" departLane="best" departPos="random" departSpeed="0" from="193253433#2" to="28231434"/>
  <flow id="car_193253433#2_23241821#0_0008a091" type="car" begin="0" end="3600" vehsPerHour="34.94" departLane="best" departPos="random" departSpeed="0" from="193253433#2" to="23241821#0"/>
  <flow id="car_193253433#2_198876042#0_0008a091" type="car" begin="0" end="3600" vehsPerHour="27.31" departLane="best" departPos="random" departSpeed="0" from="193253433#2" to="198876042#0"/>
  <flow id="car_193253433#2_193253427#0_0008a091" type="car" begin="0" end="3600" vehsPerHour="22.65" departLane="best" departPos="random" departSpeed="0" from="193253433#2" to="193253427#0"/>
  <flow id="motorcycle_193253433#2_198876043#0_0008a091" type="motorcycle" begin="0" end="3600" vehsPerHour="113.45" departLane="best" departPos="random" departSpeed="0" from="193253433#2" to="198876043#0"/>
  <flow id="motorcycle_193253433#2_28231434_0008a091" type="motorcycle" begin="0" end="3600" vehsPerHour="97.95" departLane="best" departPos="random" departSpeed="0" from="193253433#2" to="28231434"/>
  <flow id="motorcycle_193253433#2_23241821#0_0008a091" type="motorcycle" begin="0" end="3600" vehsPerHour="98.40" departLane="best" departPos="random" departSpeed="0" from="193253433#2" to="23241821#0"/>
  <flow id="motorcycle_193253433#2_198876042#0_0008a091" type="motorcycle" begin="0" end="3600" vehsPerHour="81.47" departLane="best" departPos="random" departSpeed="0" from="193253433#2" to="198876042#0"/>
  <flow id="motorcycle_193253433#2_193253427#0_0008a091" type="motorcycle" begin="0" end="3600" vehsPerHour="66.95" departLane="best" departPos="random" departSpeed="0" from="193253433#2" to="193253427#0"/>
  <flow id="car_198876045#1_28231434_0008a091" type="car" begin="0" end="3600" vehsPerHour="33.02" departLane="best" departPos="random" departSpeed="0" from="198876045#1" to="28231434"/>
  <flow id="car_198876045#1_23241821#0_0008a091" type="car" begin="0" end="3600" vehsPerHour="29.80" departLane="best" departPos="random" departSpeed="0" from="198876045#1" to="23241821#0"/>
  <flow id="car_198876045#1_198876042#0_0008a091" type="car" begin="0" end="3600" vehsPerHour="26.45" departLane="best" departPos="random" departSpeed="0" from="198876045#1" to="198876042#0"/>
  <flow id="car_198876045#1_193253427#0_0008a091" type="car" begin="0" end="3600" vehsPerHour="23.62" departLane="best" departPos="random" departSpeed="0" from="198876045#1" to="193253427#0"/>
  <flow id="car_198876045#1_198876043#2_0008a091" type="car" begin="0" end="3600" vehsPerHour="19.93" departLane="best" departPos="random" departSpeed="0" from="198876045#1" to="198876043#2"/>
  <flow id="motorcycle_198876045#1_28231434_0008a091" type="motorcycle" begin="0" end="3600" vehsPerHour="99.13" departLane="best" departPos="random" departSpeed="0" from="198876045#1" to="28231434"/>
  <flow id="motorcycle_198876045#1_23241821#0_0008a091" type="motorcycle" begin="0" end="3600" vehsPerHour="88.03" departLane="best" departPos="random" departSpeed="0" from="198876045#1" to="23241821#0"/>
  <flow id="motorcycle_198876045#1_198876042#0_0008a091" type="motorcycle" begin="0" end="3600" vehsPerHour="80.98" departLane="best" departPos="random" departSpeed="0" from="198876045#1" to="198876042#0"/>
  <flow id="motorcycle_198876045#1_193253427#0_0008a091" type="motorcycle" begin="0" end="3600" vehsPerHour="76.78" departLane="best" departPos="random" departSpeed="0" from="198876045#1" to="193253427#0"/>
  <flow id="motorcycle_198876045#1_198876043#2_0008a091" type="motorcycle" begin="0" end="3600" vehsPerHour="68.14" departLane="best" departPos="random" departSpeed="0" from="198876045#1" to="198876043#2"/>
  <flow id="car_-28231434_23241821#0_0008a091" type="car" begin="0" end="3600" vehsPerHour="23.70" departLane="best" departPos="random" departSpeed="0" from="-28231434" to="23241821#0"/>
  <flow id="car_-28231434_198876042#0_0008a091" type="car" begin="0" end="3600" vehsPerHour="20.05" departLane="best" departPos="random" departSpeed="0" from="-28231434" to="198876042#0"/>
  <flow id="car_-28231434_193253427#0_0008a091" type="car" begin="0" end="3600" vehsPerHour="17.35" departLane="best" departPos="random" departSpeed="0" from="-28231434" to="193253427#0"/>
  <flow id="car_-28231434_198876043#2_0008a091" type="car" begin="0" end="3600" vehsPerHour="16.95" departLane="best" departPos="random" departSpeed="0" from="-28231434" to="198876043#2"/>
  <flow id="car_-28231434_28231434_0008a091" type="car" begin="0" end="3600" vehsPerHour="12.92" departLane="best" departPos="random" departSpeed="0" from="-28231434" to="28231434"/>
  <flow id="motorcycle_-28231434_23241821#0_0008a091" type="motorcycle" begin="0" end="3600" vehsPerHour="66.15" departLane="best" departPos="random" departSpeed="0" from="-28231434" to="23241821#0"/>
  <flow id="motorcycle_-28231434_198876042#0_0008a091" type="motorcycle" begin="0" end="3600" vehsPerHour="57.70" departLane="best" departPos="random" departSpeed="0" from="-28231434" to="198876042#0"/>
  <flow id="motorcycle_-28231434_193253427#0_0008a091" type="motorcycle" begin="0" end="3600" vehsPerHour="55.61" departLane="best" departPos="random" departSpeed="0" from="-28231434" to="193253427#0"/>
  <flow id="motorcycle_-28231434_198876043#2_0008a091" type="motorcycle" begin="0" end="3600" vehsPerHour="46.26" departLane="best" departPos="random" departSpeed="0" from="-28231434" to="198876043#2"/>
  <flow id="motorcycle_-28231434_28231434_0008a091" type="motorcycle" begin="0" end="3600" vehsPerHour="38.59" departLane="best" departPos="random" departSpeed="0" from="-28231434" to="28231434"/>
  <flow id="car_-55029244#0_198876042#0_0008a091" type="car" begin="0" end="3600" vehsPerHour="26.04" departLane="best" departPos="random" departSpeed="0" from="-55029244#0" to="198876042#0"/>
  <flow id="car_-55029244#0_193253427#0_0008a091" type="car" begin="0" end="3600" vehsPerHour="24.27" departLane="best" departPos="random" departSpeed="0" from="-55029244#0" to="193253427#0"/>
  <flow id="car_-55029244#0_198876043#2_0008a091" type="car" begin="0" end="3600" vehsPerHour="20.67" departLane="best" departPos="random" departSpeed="0" from="-55029244#0" to="198876043#2"/>
  <flow id="car_-55029244#0_28231434_0008a091" type="car" begin="0" end="3600" vehsPerHour="17.63" departLane="best" departPos="random" departSpeed="0" from="-55029244#0" to="28231434"/>
  <flow id="car_-55029244#0_23241821#0_0008a091" type="car" begin="0" end="3600" vehsPerHour="13.41" departLane="best" departPos="random" departSpeed="0" from="-55029244#0" to="23241821#0"/>
  <flow id="motorcycle_-55029244#0_198876042#0_0008a091" type="motorcycle" begin="0" end="3600" vehsPerHour="80.96" departLane="best" departPos="random" departSpeed="0" from="-55029244#0" to="198876042#0"/>
  <flow id="motorcycle_-55029244#0_193253427#0_0008a091" type="motorcycle" begin="0" end="3600" vehsPerHour="70.01" departLane="best" departPos="random" departSpeed="0" from="-55029244#0" to="193253427#0"/>
  <flow id="motorcycle_-55029244#0_198876043#2_0008a091" type="motorcycle" begin="0" end="3600" vehsPerHour="62.80" departLane="best" departPos="random" departSpeed="0" from="-55029244#0" to="198876043#2"/>
  <flow id="motorcycle_-55029244#0_28231434_0008a091" type="motorcycle" begin="0" end="3600" vehsPerHour="52.99" departLane="best" departPos="random" departSpeed="0" from="-55029244#0" to="28231434"/>
  <flow id="motorcycle_-55029244#0_23241821#0_0008a091" type="motorcycle" begin="0" end="3600" vehsPerHour="48.27" departLane="best" departPos="random" departSpeed="0" from="-55029244#0" to="23241821#0"/>
  <flow id="car_34241530#0_198876042#0_0008a091" type="car" begin="0" end="3600" vehsPerHour="27.46" departLane="best" departPos="random" departSpeed="0" from="34241530#0" to="198876042#0"/>
  <flow id="car_34241530#0_193253427#0_0008a091" type="car" begin="0" end="3600" vehsPerHour="23.76" departLane="best" departPos="random" departSpeed="0" from="34241530#0" to="193253427#0"/>
  <flow id="car_34241530#0_198876043#2_0008a091" type="car" begin="0" end="3600" vehsPerHour="20.29" departLane="best" departPos="random" departSpeed="0" from="34241530#0" to="198876043#2"/>
  <flow id="car_34241530#0_28231434_0008a091" type="car" begin="0" end="3600" vehsPerHour="16.16" departLane="best" departPos="random" departSpeed="0" from="34241530#0" to="28231434"/>
  <flow id="car_34241530#0_23241821#0_0008a091" type="car" begin="0" end="3600" vehsPerHour="13.10" departLane="best" departPos="random" departSpeed="0" from="34241530#0" to="23241821#0"/>
  <flow id="motorcycle_34241530#0_198876042#0_0008a091" type="motorcycle" begin="0" end="3600" vehsPerHour="82.52" departLane="best" departPos="random" departSpeed="0" from="34241530#0" to="198876042#0"/>
  <flow id="motorcycle_34241530#0_193253427#0_0008a091" type="motorcycle" begin="0" end="3600" vehsPerHour="67.55" departLane="best" departPos="random" departSpeed="0" from="34241530#0" to="193253427#0"/>
  <flow id="motorcycle_34241530#0_198876043#2_0008a091" type="motorcycle" begin="0" end="3600" vehsPerHour="59.67" departLane="best" departPos="random" departSpeed="0" from="34241530#0" to="198876043#2"/>
  <flow id="motorcycle_34241530#0_28231434_0008a091" type="motorcycle" begin="0" end="3600" vehsPerHour="51.60" departLane="best" departPos="random" departSpeed="0" from="34241530#0" to="28231434"/>
  <flow id="motorcycle_34241530#0_23241821#0_0008a091" type="motorcycle" begin="0" end="3600" vehsPerHour="47.49" departLane="best" departPos="random" departSpeed="0" from="34241530#0" to="23241821#0"/>
  <flow id="truck_34241530#0_198876042#0_0008a091" type="truck" begin="0" end="3600" vehsPerHour="11.67" departLane="best" departPos="random" departSpeed="0" from="34241530#0" to="198876042#0"/>
</routes>
