<routes>
<vType id="car" vClass="passenger" accel="2.6" decel="4.5" sigma="0.5" length="5.0" maxSpeed="13.9"/>
<vType id="motorcycle" vClass="motorcycle" accel="3.0" decel="5.0" sigma="0.5" length="2.0" maxSpeed="14.0"/>
<vType id="truck" vClass="truck" accel="1.2" decel="3.5" sigma="0.5" length="12.0" maxSpeed="10.0"/>

  <flow id="car_222682222#1_193253427#0_00078fad" type="car" begin="0" end="3600" vehsPerHour="59.07" departLane="best" departPos="random" departSpeed="0" from="222682222#1" to="193253427#0"/>
  <flow id="car_222682222#1_198876043#0_00078fad" type="car" begin="0" end="3600" vehsPerHour="49.12" departLane="best" departPos="random" departSpeed="0" from="222682222#1" to="198876043#0"/>
  <flow id="car_222682222#1_28231434_00078fad" type="car" begin="0" end="3600" vehsPerHour="52.84" departLane="best" departPos="random" departSpeed="0" from="222682222#1" to="28231434"/>
  <flow id="car_222682222#1_23241821#0_00078fad" type="car" begin="0" end="3600" vehsPerHour="41.41" departLane="best" departPos="random" departSpeed="0" from="222682222#1" to="23241821#0"/>
  <flow id="car_222682222#1_198876042#0_00078fad" type="car" begin="0" end="3600" vehsPerHour="35.25" departLane="best" departPos="random" departSpeed="0" from="222682222#1" to="198876042#0"/>
  <flow id="motorcycle_222682222#1_193253427#0_00078fad" type="motorcycle" begin="0" end="3600" vehsPerHour="179.79" departLane="best" departPos="random" departSpeed="0" from="222682222#1" to="193253427#0"/>
  <flow id="motorcycle_222682222#1_198876043#0_00078fad" type="motorcycle" begin="0" end="3600" vehsPerHour="150.00" departLane="best" departPos="random" departSpeed="0" from="222682222#1" to="198876043#0"/>
  <flow id="motorcycle_222682222#1_28231434_00078fad" type="motorcycle" begin="0" end="3600" vehsPerHour="138.66" departLane="best" departPos="random" departSpeed="0" from="222682222#1" to="28231434"/>
  <flow id="motorcycle_222682222#1_23241821#0_00078fad" type="motorcycle" begin="0" end="3600" vehsPerHour="116.11" departLane="best" departPos="random" departSpeed="0" from="222682222#1" to="23241821#0"/>
  <flow id="motorcycle_222682222#1_198876042#0_00078fad" type="motorcycle" begin="0" end="3600" vehsPerHour="97.34" departLane="best" departPos="random" departSpeed="0" from="222682222#1" to="198876042#0"/>
  <flow id="car_193253433#2_198876043#0_00078fad" type="car" begin="0" end="3600" vehsPerHour="39.69" departLane="best" departPos="random" departSpeed="0" from="193253433#2" to="198876043#0"/>
  <flow id="car_193253433#2_28231434_00078fad" type="car" begin="0" end="3600" vehsPerHour="35.19" departLane="best" departPos="random" departSpeed="0" from="193253433#2" to="28231434"/>
  <flow id="car_193253433#2_23241821#0_00078fad" type="car" begin="0" end="3600" vehsPerHour="33.37" departLane="best" departPos="random" departSpeed="0" from="193253433#2" to="23241821#0"/>
  <flow id="car_193253433#2_198876042#0_00078fad" type="car" begin="0" end="3600" vehsPerHour="28.00" departLane="best" departPos="random" departSpeed="0" from="193253433#2" to="198876042#0"/>
  <flow id="car_193253433#2_193253427#0_00078fad" type="car" begin="0" end="3600" vehsPerHour="23.89" departLane="best" departPos="random" departSpeed="0" from="193253433#2" to="193253427#0"/>
  <flow id="motorcycle_193253433#2_198876043#0_00078fad" type="motorcycle" begin="0" end="3600" vehsPerHour="114.23" departLane="best" departPos="random" departSpeed="0" from="193253433#2" to="198876043#0"/>
  <flow id="motorcycle_193253433#2_28231434_00078fad" type="motorcycle" begin="0" end="3600" vehsPerHour="98.46" departLane="best" departPos="random" departSpeed="0" from="193253433#2" to="28231434"/>
  <flow id="motorcycle_193253433#2_23241821#0_00078fad" type="motorcycle" begin="0" end="3600" vehsPerHour="96.42" departLane="best" departPos="random" departSpeed="0" from="193253433#2" to="23241821#0"/>
  <flow id="motorcycle_193253433#2_198876042#0_00078fad" type="motorcycle" begin="0" end="3600" vehsPerHour="82.86" departLane="best" departPos="random" departSpeed="0" from="193253433#2" to="198876042#0"/>
  <flow id="motorcycle_193253433#2_193253427#0_00078fad" type="motorcycle" begin="0" end="3600" vehsPerHour="68.55" departLane="best" departPos="random" departSpeed="0" from="193253433#2" to="193253427#0"/>
  <flow id="car_198876045#1_28231434_00078fad" type="car" begin="0" end="3600" vehsPerHour="32.29" departLane="best" departPos="random" departSpeed="0" from="198876045#1" to="28231434"/>
  <flow id="car_198876045#1_23241821#0_00078fad" type="car" begin="0" end="3600" vehsPerHour="30.32" departLane="best" departPos="random" departSpeed="0" from="198876045#1" to="23241821#0"/>
  <flow id="car_198876045#1_198876042#0_00078fad" type="car" begin="0" end="3600" vehsPerHour="26.10" departLane="best" departPos="random" departSpeed="0" from="198876045#1" to="198876042#0"/>
  <flow id="car_198876045#1_193253427#0_00078fad" type="car" begin="0" end="3600" vehsPerHour="23.93" departLane="best" departPos="random" departSpeed="0" from="198876045#1" to="193253427#0"/>
  <flow id="car_198876045#1_198876043#2_00078fad" type="car" begin="0" end="3600" vehsPerHour="19.70" departLane="best" departPos="random" departSpeed="0" from="198876045#1" to="198876043#2"/>
  <flow id="motorcycle_198876045#1_28231434_00078fad" type="motorcycle" begin="0" end="3600" vehsPerHour="100.91" departLane="best" departPos="random" departSpeed="0" from="198876045#1" to="28231434"/>
  <flow id="motorcycle_198876045#1_23241821#0_00078fad" type="motorcycle" begin="0" end="3600" vehsPerHour="84.67" departLane="best" departPos="random" departSpeed="0" from="198876045#1" to="23241821#0"/>
  <flow id="motorcycle_198876045#1_198876042#0_00078fad" type="motorcycle" begin="0" end="3600" vehsPerHour="82.92" departLane="best" departPos="random" departSpeed="0" from="198876045#1" to="198876042#0"/>
  <flow id="motorcycle_198876045#1_193253427#0_00078fad" type="motorcycle" begin="0" end="3600" vehsPerHour="71.14" departLane="best" departPos="random" departSpeed="0" from="198876045#1" to="193253427#0"/>
  <flow id="motorcycle_198876045#1_198876043#2_00078fad" type="motorcycle" begin="0" end="3600" vehsPerHour="67.47" departLane="best" departPos="random" departSpeed="0" from="198876045#1" to="198876043#2"/>
  <flow id="car_-28231434_23241821#0_00078fad" type="car" begin="0" end="3600" vehsPerHour="24.32" departLane="best" departPos="random" departSpeed="0" from="-28231434" to="23241821#0"/>
  <flow id="car_-28231434_198876042#0_00078fad" type="car" begin="0" end="3600" vehsPerHour="20.32" departLane="best" departPos="random" departSpeed="0" from="-28231434" to="198876042#0"/>
  <flow id="car_-28231434_193253427#0_00078fad" type="car" begin="0" end="3600" vehsPerHour="16.28" departLane="best" departPos="random" departSpeed="0" from="-28231434" to="193253427#0"/>
  <flow id="car_-28231434_198876043#2_00078fad" type="car" begin="0" end="3600" vehsPerHour="17.60" departLane="best" departPos="random" departSpeed="0" from="-28231434" to="198876043#2"/>
  <flow id="car_-28231434_28231434_00078fad" type="car" begin="0" end="3600" vehsPerHour="13.12" departLane="best" departPos="random" departSpeed="0" from="-28231434" to="28231434"/>
  <flow id="motorcycle_-28231434_23241821#0_00078fad" type="motorcycle" begin="0" end="3600" vehsPerHour="68.38" departLane="best" departPos="random" departSpeed="0" from="-28231434" to="23241821#0"/>
  <flow id="motorcycle_-28231434_198876042#0_00078fad" type="motorcycle" begin="0" end="3600" vehsPerHour="62.00" departLane="best" departPos="random" departSpeed="0" from="-28231434" to="198876042#0"/>
  <flow id="motorcycle_-28231434_193253427#0_00078fad" type="motorcycle" begin="0" end="3600" vehsPerHour="52.08" departLane="best" departPos="random" departSpeed="0" from="-28231434" to="193253427#0"/>
  <flow id="motorcycle_-28231434_198876043#2_00078fad" type="motorcycle" begin="0" end="3600" vehsPerHour="48.83" departLane="best" departPos="random" departSpeed="0" from="-28231434" to="198876043#2"/>
  <flow id="motorcycle_-28231434_28231434_00078fad" type="motorcycle" begin="0" end="3600" vehsPerHour="39.71" departLane="best" departPos="random" departSpeed="0" from="-28231434" to="28231434"/>
  <flow id="car_-55029244#0_198876042#0_00078fad" type="car" begin="0" end="3600" vehsPerHour="25.97" departLane="best" departPos="random" departSpeed="0" from="-55029244#0" to="198876042#0"/>
  <flow id="car_-55029244#0_193253427#0_00078fad" type="car" begin="0" end="3600" vehsPerHour="23.30" departLane="best" departPos="random" departSpeed="0" from="-55029244#0" to="193253427#0"/>
  <flow id="car_-55029244#0_198876043#2_00078fad" type="car" begin="0" end="3600" vehsPerHour="19.98" departLane="best" departPos="random" departSpeed="0" from="-55029244#0" to="198876043#2"/>
  <flow id="car_-55029244#0_28231434_00078fad" type="car" begin="0" end="3600" vehsPerHour="17.48" departLane="best" departPos="random" departSpeed="0" from="-55029244#0" to="28231434"/>
  <flow id="car_-55029244#0_23241821#0_00078fad" type="car" begin="0" end="3600" vehsPerHour="13.55" departLane="best" departPos="random" departSpeed="0" from="-55029244#0" to="23241821#0"/>
  <flow id="motorcycle_-55029244#0_198876042#0_00078fad" type="motorcycle" begin="0" end="3600" vehsPerHour="77.56" departLane="best" departPos="random" departSpeed="0" from="-55029244#0" to="198876042#0"/>
  <flow id="motorcycle_-55029244#0_193253427#0_00078fad" type="motorcycle" begin="0" end="3600" vehsPerHour="69.13" departLane="best" departPos="random" departSpeed="0" from="-55029244#0" to="193253427#0"/>
  <flow id="motorcycle_-55029244#0_198876043#2_00078fad" type="motorcycle" begin="0" end="3600" vehsPerHour="59.80" departLane="best" departPos="random" departSpeed="0" from="-55029244#0" to="198876043#2"/>
  <flow id="motorcycle_-55029244#0_28231434_00078fad" type="motorcycle" begin="0" end="3600" vehsPerHour="51.62" departLane="best" departPos="random" departSpeed="0" from="-55029244#0" to="28231434"/>
  <flow id="motorcycle_-55029244#0_23241821#0_00078fad" type="motorcycle" begin="0" end="3600" vehsPerHour="46.09" departLane="best" departPos="random" departSpeed="0" from="-55029244#0" to="23241821#0"/>
  <flow id="car_34241530#0_198876042#0_00078fad" type="car" begin="0" end="3600" vehsPerHour="26.58" departLane="best" departPos="random" departSpeed="0" from="34241530#0" to="198876042#0"/>
  <flow id="car_34241530#0_193253427#0_00078fad" type="car" begin="0" end="3600" vehsPerHour="24.60" departLane="best" departPos="random" departSpeed="0" from="34241530#0" to="193253427#0"/>
  <flow id="car_34241530#0_198876043#2_00078fad" type="car" begin="0" end="3600" vehsPerHour="20.62" departLane="best" departPos="random" departSpeed="0" from="34241530#0" to="198876043#2"/>
  <flow id="car_34241530#0_28231434_00078fad" type="car" begin="0" end="3600" vehsPerHour="16.22" departLane="best" departPos="random" departSpeed="0" from="34241530#0" to="28231434"/>
  <flow id="car_34241530#0_23241821#0_00078fad" type="car" begin="0" end="3600" vehsPerHour="12.88" departLane="best" departPos="random" departSpeed="0" from="34241530#0" to="23241821#0"/>
  <flow id="motorcycle_34241530#0_198876042#0_00078fad" type="motorcycle" begin="0" end="3600" vehsPerHour="81.78" departLane="best" departPos="random" departSpeed="0" from="34241530#0" to="198876042#0"/>
  <flow id="motorcycle_34241530#0_193253427#0_00078fad" type="motorcycle" begin="0" end="3600" vehsPerHour="70.17" departLane="best" departPos="random" departSpeed="0" from="34241530#0" to="193253427#0"/>
  <flow id="motorcycle_34241530#0_198876043#2_00078fad" type="motorcycle" begin="0" end="3600" vehsPerHour="58.27" departLane="best" departPos="random" departSpeed="0" from="34241530#0" to="198876043#2"/>
  <flow id="motorcycle_34241530#0_28231434_00078fad" type="motorcycle" begin="0" end="3600" vehsPerHour="56.60" departLane="best" departPos="random" departSpeed="0" from="34241530#0" to="28231434"/>
  <flow id="motorcycle_34241530#0_23241821#0_00078fad" type="motorcycle" begin="0" end="3600" vehsPerHour="45.88" departLane="best" departPos="random" departSpeed="0" from="34241530#0" to="23241821#0"/>
  <flow id="truck_34241530#0_198876042#0_00078fad" type="truck" begin="0" end="3600" vehsPerHour="11.30" departLane="best" departPos="random" departSpeed="0" from="34241530#0" to="198876042#0"/>
</routes>
