<routes>
<vType id="car" vClass="passenger" accel="2.6" decel="4.5" sigma="0.5" length="5.0" maxSpeed="13.9"/>
<vType id="motorcycle" vClass="motorcycle" accel="3.0" decel="5.0" sigma="0.5" length="2.0" maxSpeed="14.0"/>
<vType id="truck" vClass="truck" accel="1.2" decel="3.5" sigma="0.5" length="12.0" maxSpeed="10.0"/>

  <flow id="car_222682222#1_193253427#0_0004f7f6" type="car" begin="0" end="3600" vehsPerHour="60.87" departLane="best" departPos="random" departSpeed="0" from="222682222#1" to="193253427#0"/>
  <flow id="car_222682222#1_198876043#0_0004f7f6" type="car" begin="0" end="3600" vehsPerHour="49.70" departLane="best" departPos="random" departSpeed="0" from="222682222#1" to="198876043#0"/>
  <flow id="car_222682222#1_28231434_0004f7f6" type="car" begin="0" end="3600" vehsPerHour="51.56" departLane="best" departPos="random" departSpeed="0" from="222682222#1" to="28231434"/>
  <flow id="car_222682222#1_23241821#0_0004f7f6" type="car" begin="0" end="3600" vehsPerHour="41.34" departLane="best" departPos="random" departSpeed="0" from="222682222#1" to="23241821#0"/>
  <flow id="car_222682222#1_198876042#0_0004f7f6" type="car" begin="0" end="3600" vehsPerHour="32.31" departLane="best" departPos="random" departSpeed="0" from="222682222#1" to="198876042#0"/>
  <flow id="motorcycle_222682222#1_193253427#0_0004f7f6" type="motorcycle" begin="0" end="3600" vehsPerHour="182.69" departLane="best" departPos="random" departSpeed="0" from="222682222#1" to="193253427#0"/>
  <flow id="motorcycle_222682222#1_198876043#0_0004f7f6" type="motorcycle" begin="0" end="3600" vehsPerHour="158.64" departLane="best" departPos="random" departSpeed="0" from="222682222#1" to="198876043#0"/>
  <flow id="motorcycle_222682222#1_28231434_0004f7f6" type="motorcycle" begin="0" end="3600" vehsPerHour="135.46" departLane="best" departPos="random" departSpeed="0" from="222682222#1" to="28231434"/>
  <flow id="motorcycle_222682222#1_23241821#0_0004f7f6" type="motorcycle" begin="0" end="3600" vehsPerHour="113.47" departLane="best" departPos="random" departSpeed="0" from="222682222#1" to="23241821#0"/>
  <flow id="motorcycle_222682222#1_198876042#0_0004f7f6" type="motorcycle" begin="0" end="3600" vehsPerHour="105.72" departLane="best" departPos="random" departSpeed="0" from="222682222#1" to="198876042#0"/>
  <flow id="car_193253433#2_198876043#0_0004f7f6" type="car" begin="0" end="3600" vehsPerHour="40.90" departLane="best" departPos="random" departSpeed="0" from="193253433#2" to="198876043#0"/>
  <flow id="car_193253433#2_28231434_0004f7f6" type="car" begin="0" end="3600" vehsPerHour="32.08" departLane="best" departPos="random" departSpeed="0" from="193253433#2" to="28231434"/>
  <flow id="car_193253433#2_23241821#0_0004f7f6" type="car" begin="0" end="3600" vehsPerHour="32.04" departLane="best" departPos="random" departSpeed="0" from="193253433#2" to="23241821#0"/>
  <flow id="car_193253433#2_198876042#0_0004f7f6" type="car" begin="0" end="3600" vehsPerHour="27.84" departLane="best" departPos="random" departSpeed="0" from="193253433#2" to="198876042#0"/>
  <flow id="car_193253433#2_193253427#0_0004f7f6" type="car" begin="0" end="3600" vehsPerHour="23.11" departLane="best" departPos="random" departSpeed="0" from="193253433#2" to="193253427#0"/>
  <flow id="motorcycle_193253433#2_198876043#0_0004f7f6" type="motorcycle" begin="0" end="3600" vehsPerHour="113.50" departLane="best" departPos="random" departSpeed="0" from="193253433#2" to="198876043#0"/>
  <flow id="motorcycle_193253433#2_28231434_0004f7f6" type="motorcycle" begin="0" end="3600" vehsPerHour="101.86" departLane="best" departPos="random" departSpeed="0" from="193253433#2" to="28231434"/>
  <flow id="motorcycle_193253433#2_23241821#0_0004f7f6" type="motorcycle" begin="0" end="3600" vehsPerHour="92.46" departLane="best" departPos="random" departSpeed="0" from="193253433#2" to="23241821#0"/>
  <flow id="motorcycle_193253433#2_198876042#0_0004f7f6" type="motorcycle" begin="0" end="3600" vehsPerHour="82.98" departLane="best" departPos="random" departSpeed="0" from="193253433#2" to="198876042#0"/>
  <flow id="motorcycle_193253433#2_193253427#0_0004f7f6" type="motorcycle" begin="0" end="3600" vehsPerHour="70.59" departLane="best" departPos="random" departSpeed="0" from="193253433#2" to="193253427#0"/>
  <flow id="car_198876045#1_28231434_0004f7f6" type="car" begin="0" end="3600" vehsPerHour="33.55" departLane="best" departPos="random" departSpeed="0" from="198876045#1" to="28231434"/>
  <flow id="car_198876045#1_23241821#0_0004f7f6" type="car" begin="0" end="3600" vehsPerHour="30.96" departLane="best" departPos="random" departSpeed="0" from="198876045#1" to="23241821#0"/>
  <flow id="car_198876045#1_198876042#0_0004f7f6" type="car" begin="0" end="3600" vehsPerHour="27.58" departLane="best" departPos="random" departSpeed="0" from="198876045#1" to="198876042#0"/>
  <flow id="car_198876045#1_193253427#0_0004f7f6" type="car" begin="0" end="3600" vehsPerHour="23.99" departLane="best" departPos="random" departSpeed="0" from="198876045#1" to="193253427#0"/>
  <flow id="car_198876045#1_198876043#2_0004f7f6" type="car" begin="0" end="3600" vehsPerHour="19.87" departLane="best" departPos="random" departSpeed="0" from="198876045#1" to="198876043#2"/>
  <flow id="motorcycle_198876045#1_28231434_0004f7f6" type="motorcycle" begin="0" end="3600" vehsPerHour="98.93" departLane="best" departPos="random" departSpeed="0" from="198876045#1" to="28231434"/>
  <flow id="motorcycle_198876045#1_23241821#0_0004f7f6" type="motorcycle" begin="0" end="3600" vehsPerHour="85.37" departLane="best" departPos="random" departSpeed="0" from="198876045#1" to="23241821#0"/>
  <flow id="motorcycle_198876045#1_198876042#0_0004f7f6" type="motorcycle" begin="0" end="3600" vehsPerHour="80.57" departLane="best" departPos="random" departSpeed="0" from="198876045#1" to="198876042#0"/>
  <flow id="motorcycle_198876045#1_193253427#0_0004f7f6" type="motorcycle" begin="0" end="3600" vehsPerHour="72.90" departLane="best" departPos="random" departSpeed="0" from="198876045#1" to="193253427#0"/>
  <flow id="motorcycle_198876045#1_198876043#2_0004f7f6" type="motorcycle" begin="0" end="3600" vehsPerHour="70.61" departLane="best" departPos="random" departSpeed="0" from="198876045#1" to="198876043#2"/>
  <flow id="car_-28231434_23241821#0_0004f7f6" type="car" begin="0" end="3600" vehsPerHour="23.75" departLane="best" departPos="random" departSpeed="0" from="-28231434" to="23241821#0"/>
  <flow id="car_-28231434_198876042#0_0004f7f6" type="car" begin="0" end="3600" vehsPerHour="20.31" departLane="best" departPos="random" departSpeed="0" from="-28231434" to="198876042#0"/>
  <flow id="car_-28231434_193253427#0_0004f7f6" type="car" begin="0" end="3600" vehsPerHour="16.98" departLane="best" departPos="random" departSpeed="0" from="-28231434" to="193253427#0"/>
  <flow id="car_-28231434_198876043#2_0004f7f6" type="car" begin="0" end="3600" vehsPerHour="16.36" departLane="best" departPos="random" departSpeed="0" from="-28231434" to="198876043#2"/>
  <flow id="car_-28231434_28231434_0004f7f6" type="car" begin="0" end="3600" vehsPerHour="13.93" departLane="best" departPos="random" departSpeed="0" from="-28231434" to="28231434"/>
  <flow id="motorcycle_-28231434_23241821#0_0004f7f6" type="motorcycle" begin="0" end="3600" vehsPerHour="66.53" departLane="best" departPos="random" departSpeed="0" from="-28231434" to="23241821#0"/>
  <flow id="motorcycle_-28231434_198876042#0_0004f7f6" type="motorcycle" begin="0" end="3600" vehsPerHour="63.11" departLane="best" departPos="random" departSpeed="0" from="-28231434" to="198876042#0"/>
  <flow id="motorcycle_-28231434_193253427#0_0004f7f6" type="motorcycle" begin="0" end="3600" vehsPerHour="53.35" departLane="best" departPos="random" departSpeed="0" from="-28231434" to="193253427#0"/>
  <flow id="motorcycle_-28231434_198876043#2_0004f7f6" type="motorcycle" begin="0" end="3600" vehsPerHour="45.58" departLane="best" departPos="random" departSpeed="0" from="-28231434" to="198876043#2"/>
  <flow id="motorcycle_-28231434_28231434_0004f7f6" type="motorcycle" begin="0" end="3600" vehsPerHour="41.83" departLane="best" departPos="random" departSpeed="0" from="-28231434" to="28231434"/>
  <flow id="car_-55029244#0_198876042#0_0004f7f6" type="car" begin="0" end="3600" vehsPerHour="27.60" departLane="best" departPos="random" departSpeed="0" from="-55029244#0" to="198876042#0"/>
  <flow id="car_-55029244#0_193253427#0_0004f7f6" type="car" begin="0" end="3600" vehsPerHour="24.32" departLane="best" departPos="random" departSpeed="0" from="-55029244#0" to="193253427#0"/>
  <flow id="car_-55029244#0_198876043#2_0004f7f6" type="car" begin="0" end="3600" vehsPerHour="20.84" departLane="best" departPos="random" departSpeed="0" from="-55029244#0" to="198876043#2"/>
  <flow id="car_-55029244#0_28231434_0004f7f6" type="car" begin="0" end="3600" vehsPerHour="17.56" departLane="best" departPos="random" departSpeed="0" from="-55029244#0" to="28231434"/>
  <flow id="car_-55029244#0_23241821#0_0004f7f6" type="car" begin="0" end="3600" vehsPerHour="13.46" departLane="best" departPos="random" departSpeed="0" from="-55029244#0" to="23241821#0"/>
  <flow id="motorcycle_-55029244#0_198876042#0_0004f7f6" type="motorcycle" begin="0" end="3600" vehsPerHour="79.60" departLane="best" departPos="random" departSpeed="0" from="-55029244#0" to="198876042#0"/>
  <flow id="motorcycle_-55029244#0_193253427#0_0004f7f6" type="motorcycle" begin="0" end="3600" vehsPerHour="65.71" departLane="best" departPos="random" departSpeed="0" from="-55029244#0" to="193253427#0"/>
  <flow id="motorcycle_-55029244#0_198876043#2_0004f7f6" type="motorcycle" begin="0" end="3600" vehsPerHour="61.04" departLane="best" departPos="random" departSpeed="0" from="-55029244#0" to="198876043#2"/>
  <flow id="motorcycle_-55029244#0_28231434_0004f7f6" type="motorcycle" begin="0" end="3600" vehsPerHour="52.43" departLane="best" departPos="random" departSpeed="0" from="-55029244#0" to="28231434"/>
  <flow id="motorcycle_-55029244#0_23241821#0_0004f7f6" type="motorcycle" begin="0" end="3600" vehsPerHour="48.66" departLane="best" departPos="random" departSpeed="0" from="-55029244#0" to="23241821#0"/>
  <flow id="car_34241530#0_198876042#0_0004f7f6" type="car" begin="0" end="3600" vehsPerHour="27.72" departLane="best" departPos="random" departSpeed="0" from="34241530#0" to="198876042#0"/>
  <flow id="car_34241530#0_193253427#0_0004f7f6" type="car" begin="0" end="3600" vehsPerHour="24.36" departLane="best" departPos="random" departSpeed="0" from="34241530#0" to="193253427#0"/>
  <flow id="car_34241530#0_198876043#2_0004f7f6" type="car" begin="0" end="3600" vehsPerHour="19.49" departLane="best" departPos="random" departSpeed="0" from="34241530#0" to="198876043#2"/>
  <flow id="car_34241530#0_28231434_0004f7f6" type="car" begin="0" end="3600" vehsPerHour="17.06" departLane="best" departPos="random" departSpeed="0" from="34241530#0" to="28231434"/>
  <flow id="car_34241530#0_23241821#0_0004f7f6" type="car" begin="0" end="3600" vehsPerHour="12.81" departLane="best" departPos="random" departSpeed="0" from="34241530#0" to="23241821#0"/>
  <flow id="motorcycle_34241530#0_198876042#0_0004f7f6" type="motorcycle" begin="0" end="3600" vehsPerHour="80.90" departLane="best" departPos="random" departSpeed="0" from="34241530#0" to="198876042#0"/>
  <flow id="motorcycle_34241530#0_193253427#0_0004f7f6" type="motorcycle" begin="0" end="3600" vehsPerHour="68.41" departLane="best" departPos="random" departSpeed="0" from="34241530#0" to="193253427#0"/>
  <flow id="motorcycle_34241530#0_198876043#2_0004f7f6" type="motorcycle" begin="0" end="3600" vehsPerHour="60.28" departLane="best" departPos="random" departSpeed="0" from="34241530#0" to="198876043#2"/>
  <flow id="motorcycle_34241530#0_28231434_0004f7f6" type="motorcycle" begin="0" end="3600" vehsPerHour="52.39" departLane="best" departPos="random" departSpeed="0" from="34241530#0" to="28231434"/>
  <flow id="motorcycle_34241530#0_23241821#0_0004f7f6" type="motorcycle" begin="0" end="3600" vehsPerHour="48.48" departLane="best" departPos="random" departSpeed="0" from="34241530#0" to="23241821#0"/>
  <flow id="truck_34241530#0_198876042#0_0004f7f6" type="truck" begin="0" end="3600" vehsPerHour="11.64" departLane="best" departPos="random" departSpeed="0" from="34241530#0" to="198876042#0"/>
</routes>
