<routes>
<vType id="car" vClass="passenger" accel="2.6" decel="4.5" sigma="0.5" length="5.0" maxSpeed="13.9"/>
<vType id="motorcycle" vClass="motorcycle" accel="3.0" decel="5.0" sigma="0.5" length="2.0" maxSpeed="14.0"/>
<vType id="truck" vClass="truck" accel="1.2" decel="3.5" sigma="0.5" length="12.0" maxSpeed="10.0"/>

  <flow id="car_222682222#1_193253427#0_0002365e" type="car" begin="0" end="3600" vehsPerHour="57.95" departLane="best" departPos="random" departSpeed="0" from="222682222#1" to="193253427#0"/>
  <flow id="car_222682222#1_198876043#0_0002365e" type="car" begin="0" end="3600" vehsPerHour="50.03" departLane="best" departPos="random" departSpeed="0" from="222682222#1" to="198876043#0"/>
  <flow id="car_222682222#1_28231434_0002365e" type="car" begin="0" end="3600" vehsPerHour="51.35" departLane="best" departPos="random" departSpeed="0" from="222682222#1" to="28231434"/>
  <flow id="car_222682222#1_23241821#0_0002365e" type="car" begin="0" end="3600" vehsPerHour="38.66" departLane="best" departPos="random" departSpeed="0" from="222682222#1" to="23241821#0"/>
  <flow id="car_222682222#1_198876042#0_0002365e" type="car" begin="0" end="3600" vehsPerHour="33.35" departLane="best" departPos="random" departSpeed="0" from="222682222#1" to="198876042#0"/>
  <flow id="motorcycle_222682222#1_193253427#0_0002365e" type="motorcycle" begin="0" end="3600" vehsPerHour="170.31" departLane="best" departPos="random" departSpeed="0" from="222682222#1" to="193253427#0"/>
  <flow id="motorcycle_222682222#1_198876043#0_0002365e" type="motorcycle" begin="0" end="3600" vehsPerHour="161.86" departLane="best" departPos="random" departSpeed="0" from="222682222#1" to="198876043#0"/>
  <flow id="motorcycle_222682222#1_28231434_0002365e" type="motorcycle" begin="0" end="3600" vehsPerHour="134.71" departLane="best" departPos="random" departSpeed="0" from="222682222#1" to="28231434"/>
  <flow id="motorcycle_222682222#1_23241821#0_0002365e" type="motorcycle" begin="0" end="3600" vehsPerHour="119.66" departLane="best" departPos="random" departSpeed="0" from="222682222#1" to="23241821#0"/>
  <flow id="motorcycle_222682222#1_198876042#0_0002365e" type="motorcycle" begin="0" end="3600" vehsPerHour="101.34" departLane="best" departPos="random" departSpeed="0" from="222682222#1" to="198876042#0"/>
  <flow id="car_193253433#2_198876043#0_0002365e" type="car" begin="0" end="3600" vehsPerHour="41.55" departLane="best" departPos="random" departSpeed="0" from="193253433#2" to="198876043#0"/>
  <flow id="car_193253433#2_28231434_0002365e" type="car" begin="0" end="3600" vehsPerHour="32.09" departLane="best" departPos="random" departSpeed="0" from="193253433#2" to="28231434"/>
  <flow id="car_193253433#2_23241821#0_0002365e" type="car" begin="0" end="3600" vehsPerHour="32.81" departLane="best" departPos="random" departSpeed="0" from="193253433#2" to="23241821#0"/>
  <flow id="car_193253433#2_198876042#0_0002365e" type="car" begin="0" end="3600" vehsPerHour="26.58" departLane="best" departPos="random" departSpeed="0" from="193253433#2" to="198876042#0"/>
  <flow id="car_193253433#2_193253427#0_0002365e" type="car" begin="0" end="3600" vehsPerHour="23.42" departLane="best" departPos="random" departSpeed="0" from="193253433#2" to="193253427#0"/>
  <flow id="motorcycle_193253433#2_198876043#0_0002365e" type="motorcycle" begin="0" end="3600" vehsPerHour="110.61" departLane="best" departPos="random" departSpeed="0" from="193253433#2" to="198876043#0"/>
  <flow id="motorcycle_193253433#2_28231434_0002365e" type="motorcycle" begin="0" end="3600" vehsPerHour="105.79" departLane="best" departPos="random" departSpeed="0" from="193253433#2" to="28231434"/>
  <flow id="motorcycle_193253433#2_23241821#0_0002365e" type="motorcycle" begin="0" end="3600" vehsPerHour="92.15" departLane="best" departPos="random" departSpeed="0" from="193253433#2" to="23241821#0"/>
  <flow id="motorcycle_193253433#2_198876042#0_0002365e" type="motorcycle" begin="0" end="3600" vehsPerHour="80.21" departLane="best" departPos="random" departSpeed="0" from="193253433#2" to="198876042#0"/>
  <flow id="motorcycle_193253433#2_193253427#0_0002365e" type="motorcycle" begin="0" end="3600" vehsPerHour="70.71" departLane="best" departPos="random" departSpeed="0" from="193253433#2" to="193253427#0"/>
  <flow id="car_198876045#1_28231434_0002365e" type="car" begin="0" end="3600" vehsPerHour="35.02" departLane="best" departPos="random" departSpeed="0" from="198876045#1" to="28231434"/>
  <flow id="car_198876045#1_23241821#0_0002365e" type="car" begin="0" end="3600" vehsPerHour="29.36" departLane="best" departPos="random" departSpeed="0" from="198876045#1" to="23241821#0"/>
  <flow id="car_198876045#1_198876042#0_0002365e" type="car" begin="0" end="3600" vehsPerHour="26.04" departLane="best" departPos="random" departSpeed="0" from="198876045#1" to="198876042#0"/>
  <flow id="car_198876045#1_193253427#0_0002365e" type="car" begin="0" end="3600" vehsPerHour="23.16" departLane="best" departPos="random" departSpeed="0" from="198876045#1" to="193253427#0"/>
  <flow id="car_198876045#1_198876043#2_0002365e" type="car" begin="0" end="3600" vehsPerHour="19.90" departLane="best" departPos="random" departSpeed="0" from="198876045#1" to="198876043#2"/>
  <flow id="motorcycle_198876045#1_28231434_0002365e" type="motorcycle" begin="0" end="3600" vehsPerHour="102.81" departLane="best" departPos="random" departSpeed="0" from="198876045#1" to="28231434"/>
  <flow id="motorcycle_198876045#1_23241821#0_0002365e" type="motorcycle" begin="0" end="3600" vehsPerHour="89.36" departLane="best" departPos="random" departSpeed="0" from="198876045#1" to="23241821#0"/>
  <flow id="motorcycle_198876045#1_198876042#0_0002365e" type="motorcycle" begin="0" end="3600" vehsPerHour="77.21" departLane="best" departPos="random" departSpeed="0" from="198876045#1" to="198876042#0"/>
  <flow id="motorcycle_198876045#1_193253427#0_0002365e" type="motorcycle" begin="0" end="3600" vehsPerHour="77.12" departLane="best" departPos="random" departSpeed="0" from="198876045#1" to="193253427#0"/>
  <flow id="motorcycle_198876045#1_198876043#2_0002365e" type="motorcycle" begin="0" end="3600" vehsPerHour="69.92" departLane="best" departPos="random" departSpeed="0" from="198876045#1" to="198876043#2"/>
  <flow id="car_-28231434_23241821#0_0002365e" type="car" begin="0" end="3600" vehsPerHour="22.64" departLane="best" departPos="random" departSpeed="0" from="-28231434" to="23241821#0"/>
  <flow id="car_-28231434_198876042#0_0002365e" type="car" begin="0" end="3600" vehsPerHour="19.24" departLane="best" departPos="random" departSpeed="0" from="-28231434" to="198876042#0"/>
  <flow id="car_-28231434_193253427#0_0002365e" type="car" begin="0" end="3600" vehsPerHour="17.10" departLane="best" departPos="random" departSpeed="0" from="-28231434" to="193253427#0"/>
  <flow id="car_-28231434_198876043#2_0002365e" type="car" begin="0" end="3600" vehsPerHour="16.45" departLane="best" departPos="random" departSpeed="0" from="-28231434" to="198876043#2"/>
  <flow id="car_-28231434_28231434_0002365e" type="car" begin="0" end="3600" vehsPerHour="13.96" departLane="best" departPos="random" departSpeed="0" from="-28231434" to="28231434"/>
  <flow id="motorcycle_-28231434_23241821#0_0002365e" type="motorcycle" begin="0" end="3600" vehsPerHour="68.61" departLane="best" departPos="random" departSpeed="0" from="-28231434" to="23241821#0"/>
  <flow id="motorcycle_-28231434_198876042#0_0002365e" type="motorcycle" begin="0" end="3600" vehsPerHour="60.36" departLane="best" departPos="random" departSpeed="0" from="-28231434" to="198876042#0"/>
  <flow id="motorcycle_-28231434_193253427#0_0002365e" type="motorcycle" begin="0" end="3600" vehsPerHour="55.60" departLane="best" departPos="random" departSpeed="0" from="-28231434" to="193253427#0"/>
  <flow id="motorcycle_-28231434_198876043#2_0002365e" type="motorcycle" begin="0" end="3600" vehsPerHour="46.70" departLane="best" departPos="random" departSpeed="0" from="-28231434" to="198876043#2"/>
  <flow id="motorcycle_-28231434_28231434_0002365e" type="motorcycle" begin="0" end="3600" vehsPerHour="39.03" departLane="best" departPos="random" departSpeed="0" from="-28231434" to="28231434"/>
  <flow id="car_-55029244#0_198876042#0_0002365e" type="car" begin="0" end="3600" vehsPerHour="27.48" departLane="best" departPos="random" departSpeed="0" from="-55029244#0" to="198876042#0"/>
  <flow id="car_-55029244#0_193253427#0_0002365e" type="car" begin="0" end="3600" vehsPerHour="22.97" departLane="best" departPos="random" departSpeed="0" from="-55029244#0" to="193253427#0"/>
  <flow id="car_-55029244#0_198876043#2_0002365e" type="car" begin="0" end="3600" vehsPerHour="21.18" departLane="best" departPos="random" departSpeed="0" from="-55029244#0" to="198876043#2"/>
  <flow id="car_-55029244#0_28231434_0002365e" type="car" begin="0" end="3600" vehsPerHour="16.53" departLane="best" departPos="random" departSpeed="0" from="-55029244#0" to="28231434"/>
  <flow id="car_-55029244#0_23241821#0_0002365e" type="car" begin="0" end="3600" vehsPerHour="13.18" departLane="best" departPos="random" departSpeed="0" from="-55029244#0" to="23241821#0"/>
  <flow id="motorcycle_-55029244#0_198876042#0_0002365e" type="motorcycle" begin="0" end="3600" vehsPerHour="84.73" departLane="best" departPos="random" departSpeed="0" from="-55029244#0" to="198876042#0"/>
  <flow id="motorcycle_-55029244#0_193253427#0_0002365e" type="motorcycle" begin="0" end="3600" vehsPerHour="64.64" departLane="best" departPos="random" departSpeed="0" from="-55029244#0" to="193253427#0"/>
  <flow id="motorcycle_-55029244#0_198876043#2_0002365e" type="motorcycle" begin="0" end="3600" vehsPerHour="58.93" departLane="best" departPos="random" departSpeed="0" from="-55029244#0" to="198876043#2"/>
  <flow id="motorcycle_-55029244#0_28231434_0002365e" type="motorcycle" begin="0" end="3600" vehsPerHour="54.11" departLane="best" departPos="random" departSpeed="0" from="-55029244#0" to="28231434"/>
  <flow id="motorcycle_-55029244#0_23241821#0_0002365e" type="motorcycle" begin="0" end="3600" vehsPerHour="45.86" departLane="best" departPos="random" departSpeed="0" from="-55029244#0" to="23241821#0"/>
  <flow id="car_34241530#0_198876042#0_0002365e" type="car" begin="0" end="3600" vehsPerHour="27.34" departLane="best" departPos="random" departSpeed="0" from="34241530#0" to="198876042#0"/>
  <flow id="car_34241530#0_193253427#0_0002365e" type="car" begin="0" end="3600" vehsPerHour="23.31" departLane="best" departPos="random" departSpeed="0" from="34241530#0" to="193253427#0"/>
  <flow id="car_34241530#0_198876043#2_0002365e" type="car" begin="0" end="3600" vehsPerHour="20.87" departLane="best" departPos="random" departSpeed="0" from="34241530#0" to="198876043#2"/>
  <flow id="car_34241530#0_28231434_0002365e" type="car" begin="0" end="3600" vehsPerHour="16.88" departLane="best" departPos="random" departSpeed="0" from="34241530#0" to="28231434"/>
  <flow id="car_34241530#0_23241821#0_0002365e" type="car" begin="0" end="3600" vehsPerHour="13.18" departLane="best" departPos="random" departSpeed="0" from="34241530#0" to="23241821#0"/>
  <flow id="motorcycle_34241530#0_198876042#0_0002365e" type="motorcycle" begin="0" end="3600" vehsPerHour="79.41" departLane="best" departPos="random" departSpeed="0" from="34241530#0" to="198876042#0"/>
  <flow id="motorcycle_34241530#0_193253427#0_0002365e" type="motorcycle" begin="0" end="3600" vehsPerHour="69.76" departLane="best" departPos="random" departSpeed="0" from="34241530#0" to="193253427#0"/>
  <flow id="motorcycle_34241530#0_198876043#2_0002365e" type="motorcycle" begin="0" end="3600" vehsPerHour="62.03" departLane="best" departPos="random" departSpeed="0" from="34241530#0" to="198876043#2"/>
  <flow id="motorcycle_34241530#0_28231434_0002365e" type="motorcycle" begin="0" end="3600" vehsPerHour="54.93" departLane="best" departPos="random" departSpeed="0" from="34241530#0" to="28231434"/>
  <flow id="motorcycle_34241530#0_23241821#0_0002365e" type="motorcycle" begin="0" end="3600" vehsPerHour="45.28" departLane="best" departPos="random" departSpeed="0" from="34241530#0" to="23241821#0"/>
  <flow id="truck_34241530#0_198876042#0_0002365e" type="truck" begin="0" end="3600" vehsPerHour="12.38" departLane="best" departPos="random" departSpeed="0" from="34241530#0" to="198876042#0"/>
</routes>
