<routes>
<vType id="car" vClass="passenger" accel="2.6" decel="4.5" sigma="0.5" length="5.0" maxSpeed="13.9"/>
<vType id="motorcycle" vClass="motorcycle" accel="3.0" decel="5.0" sigma="0.5" length="2.0" maxSpeed="14.0"/>
<vType id="truck" vClass="truck" accel="1.2" decel="3.5" sigma="0.5" length="12.0" maxSpeed="10.0"/>

  <flow id="car_222682222#1_193253427#0_0000f98f" type="car" begin="0" end="3600" vehsPerHour="58.17" departLane="best" departPos="random" departSpeed="0" from="222682222#1" to="193253427#0"/>
  <flow id="car_222682222#1_198876043#0_0000f98f" type="car" begin="0" end="3600" vehsPerHour="49.67" departLane="best" departPos="random" departSpeed="0" from="222682222#1" to="198876043#0"/>
  <flow id="car_222682222#1_28231434_0000f98f" type="car" begin="0" end="3600" vehsPerHour="50.31" departLane="best" departPos="random" departSpeed="0" from="222682222#1" to="28231434"/>
  <flow id="car_222682222#1_23241821#0_0000f98f" type="car" begin="0" end="3600" vehsPerHour="41.27" departLane="best" departPos="random" departSpeed="0" from="222682222#1" to="23241821#0"/>
  <flow id="car_222682222#1_198876042#0_0000f98f" type="car" begin="0" end="3600" vehsPerHour="34.69" departLane="best" departPos="random" departSpeed="0" from="222682222#1" to="198876042#0"/>
  <flow id="motorcycle_222682222#1_193253427#0_0000f98f" type="motorcycle" begin="0" end="3600" vehsPerHour="172.72" departLane="best" departPos="random" departSpeed="0" from="222682222#1" to="193253427#0"/>
  <flow id="motorcycle_222682222#1_198876043#0_0000f98f" type="motorcycle" begin="0" end="3600" vehsPerHour="149.56" departLane="best" departPos="random" departSpeed="0" from="222682222#1" to="198876043#0"/>
  <flow id="motorcycle_222682222#1_28231434_0000f98f" type="motorcycle" begin="0" end="3600" vehsPerHour="139.88" departLane="best" departPos="random" departSpeed="0" from="222682222#1" to="28231434"/>
  <flow id="motorcycle_222682222#1_23241821#0_0000f98f" type="motorcycle" begin="0" end="3600" vehsPerHour="112.26" departLane="best" departPos="random" departSpeed="0" from="222682222#1" to="23241821#0"/>
  <flow id="motorcycle_222682222#1_198876042#0_0000f98f" type="motorcycle" begin="0" end="3600" vehsPerHour="103.58" departLane="best" departPos="random" departSpeed="0" from="222682222#1" to="198876042#0"/>
  <flow id="car_193253433#2_198876043#0_0000f98f" type="car" begin="0" end="3600" vehsPerHour="39.51" departLane="best" departPos="random" departSpeed="0" from="193253433#2" to="198876043#0"/>
  <flow id="car_193253433#2_28231434_0000f98f" type="car" begin="0" end="3600" vehsPerHour="32.59" departLane="best" departPos="random" departSpeed="0" from="193253433#2" to="28231434"/>
  <flow id="car_193253433#2_23241821#0_0000f98f" type="car" begin="0" end="3600" vehsPerHour="32.75" departLane="best" departPos="random" departSpeed="0" from="193253433#2" to="23241821#0"/>
  <flow id="car_193253433#2_198876042#0_0000f98f" type="car" begin="0" end="3600" vehsPerHour="28.23" departLane="best" departPos="random" departSpeed="0" from="193253433#2" to="198876042#0"/>
  <flow id="car_193253433#2_193253427#0_0000f98f" type="car" begin="0" end="3600" vehsPerHour="24.22" departLane="best" departPos="random" departSpeed="0" from="193253433#2" to="193253427#0"/>
  <flow id="motorcycle_193253433#2_198876043#0_0000f98f" type="motorcycle" begin="0" end="3600" vehsPerHour="110.74" departLane="best" departPos="random" departSpeed="0" from="193253433#2" to="198876043#0"/>
  <flow id="motorcycle_193253433#2_28231434_0000f98f" type="motorcycle" begin="0" end="3600" vehsPerHour="97.67" departLane="best" departPos="random" departSpeed="0" from="193253433#2" to="28231434"/>
  <flow id="motorcycle_193253433#2_23241821#0_0000f98f" type="motorcycle" begin="0" end="3600" vehsPerHour="90.89" departLane="best" departPos="random" departSpeed="0" from="193253433#2" to="23241821#0"/>
  <flow id="motorcycle_193253433#2_198876042#0_0000f98f" type="motorcycle" begin="0" end="3600" vehsPerHour="77.06" departLane="best" departPos="random" departSpeed="0" from="193253433#2" to="198876042#0"/>
  <flow id="motorcycle_193253433#2_193253427#0_0000f98f" type="motorcycle" begin="0" end="3600" vehsPerHour="70.09" departLane="best" departPos="random" departSpeed="0" from="193253433#2" to="193253427#0"/>
  <flow id="car_198876045#1_28231434_0000f98f" type="car" begin="0" end="3600" vehsPerHour="34.20" departLane="best" departPos="random" departSpeed="0" from="198876045#1" to="28231434"/>
  <flow id="car_198876045#1_23241821#0_0000f98f" type="car" begin="0" end="3600" vehsPerHour="30.53" departLane="best" departPos="random" departSpeed="0" from="198876045#1" to="23241821#0"/>
  <flow id="car_198876045#1_198876042#0_0000f98f" type="car" begin="0" end="3600" vehsPerHour="26.14" departLane="best" departPos="random" departSpeed="0" from="198876045#1" to="198876042#0"/>
  <flow id="car_198876045#1_193253427#0_0000f98f" type="car" begin="0" end="3600" vehsPerHour="22.93" departLane="best" departPos="random" departSpeed="0" from="198876045#1" to="193253427#0"/>
  <flow id="car_198876045#1_198876043#2_0000f98f" type="car" begin="0" end="3600" vehsPerHour="21.15" departLane="best" departPos="random" departSpeed="0" from="198876045#1" to="198876043#2"/>
  <flow id="motorcycle_198876045#1_28231434_0000f98f" type="motorcycle" begin="0" end="3600" vehsPerHour="100.24" departLane="best" departPos="random" departSpeed="0" from="198876045#1" to="28231434"/>
  <flow id="motorcycle_198876045#1_23241821#0_0000f98f" type="motorcycle" begin="0" end="3600" vehsPerHour="85.65" departLane="best" departPos="random" departSpeed="0" from="198876045#1" to="23241821#0"/>
  <flow id="motorcycle_198876045#1_198876042#0_0000f98f" type="motorcycle" begin="0" end="3600" vehsPerHour="79.10" departLane="best" departPos="random" departSpeed="0" from="198876045#1" to="198876042#0"/>
  <flow id="motorcycle_198876045#1_193253427#0_0000f98f" type="motorcycle" begin="0" end="3600" vehsPerHour="75.11" departLane="best" departPos="random" departSpeed="0" from="198876045#1" to="193253427#0"/>
  <flow id="motorcycle_198876045#1_198876043#2_0000f98f" type="motorcycle" begin="0" end="3600" vehsPerHour="66.79" departLane="best" departPos="random" departSpeed="0" from="198876045#1" to="198876043#2"/>
  <flow id="car_-28231434_23241821#0_0000f98f" type="car" begin="0" end="3600" vehsPerHour="24.04" departLane="best" departPos="random" departSpeed="0" from="-28231434" to="23241821#0"/>
  <flow id="car_-28231434_198876042#0_0000f98f" type="car" begin="0" end="3600" vehsPerHour="19.67" departLane="best" departPos="random" departSpeed="0" from="-28231434" to="198876042#0"/>
  <flow id="car_-28231434_193253427#0_0000f98f" type="car" begin="0" end="3600" vehsPerHour="16.91" departLane="best" departPos="random" departSpeed="0" from="-28231434" to="193253427#0"/>
  <flow id="car_-28231434_198876043#2_0000f98f" type="car" begin="0" end="3600" vehsPerHour="16.32" departLane="best" departPos="random" departSpeed="0" from="-28231434" to="198876043#2"/>
  <flow id="car_-28231434_28231434_0000f98f" type="car" begin="0" end="3600" vehsPerHour="14.13" departLane="best" departPos="random" departSpeed="0" from="-28231434" to="28231434"/>
  <flow id="motorcycle_-28231434_23241821#0_0000f98f" type="motorcycle" begin="0" end="3600" vehsPerHour="68.59" departLane="best" departPos="random" departSpeed="0" from="-28231434" to="23241821#0"/>
  <flow id="motorcycle_-28231434_198876042#0_0000f98f" type="motorcycle" begin="0" end="3600" vehsPerHour="59.06" departLane="best" departPos="random" departSpeed="0" from="-28231434" to="198876042#0"/>
  <flow id="motorcycle_-28231434_193253427#0_0000f98f" type="motorcycle" begin="0" end="3600" vehsPerHour="53.66" departLane="best" departPos="random" departSpeed="0" from="-28231434" to="193253427#0"/>
  <flow id="motorcycle_-28231434_198876043#2_0000f98f" type="motorcycle" begin="0" end="3600" vehsPerHour="45.73" departLane="best" departPos="random" departSpeed="0" from="-28231434" to="198876043#2"/>
  <flow id="motorcycle_-28231434_28231434_0000f98f" type="motorcycle" begin="0" end="3600" vehsPerHour="40.55" departLane="best" departPos="random" departSpeed="0" from="-28231434" to="28231434"/>
  <flow id="car_-55029244#0_198876042#0_0000f98f" type="car" begin="0" end="3600" vehsPerHour="26.42" departLane="best" departPos="random" departSpeed="0" from="-55029244#0" to="198876042#0"/>
  <flow id="car_-55029244#0_193253427#0_0000f98f" type="car" begin="0" end="3600" vehsPerHour="24.65" departLane="best" departPos="random" departSpeed="0" from="-55029244#0" to="193253427#0"/>
  <flow id="car_-55029244#0_198876043#2_0000f98f" type="car" begin="0" end="3600" vehsPerHour="20.25" departLane="best" departPos="random" departSpeed="0" from="-55029244#0" to="198876043#2"/>
  <flow id="car_-55029244#0_28231434_0000f98f" type="car" begin="0" end="3600" vehsPerHour="16.97" departLane="best" departPos="random" departSpeed="0" from="-55029244#0" to="28231434"/>
  <flow id="car_-55029244#0_23241821#0_0000f98f" type="car" begin="0" end="3600" vehsPerHour="12.98" departLane="best" departPos="random" departSpeed="0" from="-55029244#0" to="23241821#0"/>
  <flow id="motorcycle_-55029244#0_198876042#0_0000f98f" type="motorcycle" begin="0" end="3600" vehsPerHour="82.80" departLane="best" departPos="random" departSpeed="0" from="-55029244#0" to="198876042#0"/>
  <flow id="motorcycle_-55029244#0_193253427#0_0000f98f" type="motorcycle" begin="0" end="3600" vehsPerHour="66.51" departLane="best" departPos="random" departSpeed="0" from="-55029244#0" to="193253427#0"/>
  <flow id="motorcycle_-55029244#0_198876043#2_0000f98f" type="motorcycle" begin="0" end="3600" vehsPerHour="60.37" departLane="best" departPos="random" departSpeed="0" from="-55029244#0" to="198876043#2"/>
  <flow id="motorcycle_-55029244#0_28231434_0000f98f" type="motorcycle" begin="0" end="3600" vehsPerHour="54.18" departLane="best" departPos="random" departSpeed="0" from="-55029244#0" to="28231434"/>
  <flow id="motorcycle_-55029244#0_23241821#0_0000f98f" type="motorcycle" begin="0" end="3600" vehsPerHour="45.07" departLane="best" departPos="random" departSpeed="0" from="-55029244#0" to="23241821#0"/>
  <flow id="car_34241530#0_198876042#0_0000f98f" type="car" begin="0" end="3600" vehsPerHour="27.25" departLane="best" departPos="random" departSpeed="0" from="34241530#0" to="198876042#0"/>
  <flow id="car_34241530#0_193253427#0_0000f98f" type="car" begin="0" end="3600" vehsPerHour="23.65" departLane="best" departPos="random" departSpeed="0" from="34241530#0" to="193253427#0"/>
  <flow id="car_34241530#0_198876043#2_0000f98f" type="car" begin="0" end="3600" vehsPerHour="20.64" departLane="best" departPos="random" departSpeed="0" from="34241530#0" to="198876043#2"/>
  <flow id="car_34241530#0_28231434_0000f98f" type="car" begin="0" end="3600" vehsPerHour="17.36" departLane="best" departPos="random" departSpeed="0" from="34241530#0" to="28231434"/>
  <flow id="car_34241530#0_23241821#0_0000f98f" type="car" begin="0" end="3600" vehsPerHour="13.76" departLane="best" departPos="random" departSpeed="0" from="34241530#0" to="23241821#0"/>
  <flow id="motorcycle_34241530#0_198876042#0_0000f98f" type="motorcycle" begin="0" end="3600" vehsPerHour="80.66" departLane="best" departPos="random" departSpeed="0" from="34241530#0" to="198876042#0"/>
  <flow id="motorcycle_34241530#0_193253427#0_0000f98f" type="motorcycle" begin="0" end="3600" vehsPerHour="64.76" departLane="best" departPos="random" departSpeed="0" from="34241530#0" to="193253427#0"/>
  <flow id="motorcycle_34241530#0_198876043#2_0000f98f" type="motorcycle" begin="0" end="3600" vehsPerHour="58.06" departLane="best" departPos="random" departSpeed="0" from="34241530#0" to="198876043#2"/>
  <flow id="motorcycle_34241530#0_28231434_0000f98f" type="motorcycle" begin="0" end="3600" vehsPerHour="51.77" departLane="best" departPos="random" departSpeed="0" from="34241530#0" to="28231434"/>
  <flow id="motorcycle_34241530#0_23241821#0_0000f98f" type="motorcycle" begin="0" end="3600" vehsPerHour="49.51" departLane="best" departPos="random" departSpeed="0" from="34241530#0" to="23241821#0"/>
  <flow id="truck_34241530#0_198876042#0_0000f98f" type="truck" begin="0" end="3600" vehsPerHour="12.21" departLane="best" departPos="random" departSpeed="0" from="34241530#0" to="198876042#0"/>
</routes>
