<routes>
<vType id="car" vClass="passenger" accel="2.6" decel="4.5" sigma="0.5" length="5.0" maxSpeed="13.9"/>
<vType id="motorcycle" vClass="motorcycle" accel="3.0" decel="5.0" sigma="0.5" length="2.0" maxSpeed="14.0"/>
<vType id="truck" vClass="truck" accel="1.2" decel="3.5" sigma="0.5" length="12.0" maxSpeed="10.0"/>

  <flow id="car_222682222#1_193253427#0_0009581c" type="car" begin="0" end="3600" vehsPerHour="63.13" departLane="best" departPos="random" departSpeed="0" from="222682222#1" to="193253427#0"/>
  <flow id="car_222682222#1_198876043#0_0009581c" type="car" begin="0" end="3600" vehsPerHour="50.20" departLane="best" departPos="random" departSpeed="0" from="222682222#1" to="198876043#0"/>
  <flow id="car_222682222#1_28231434_0009581c" type="car" begin="0" end="3600" vehsPerHour="50.27" departLane="best" departPos="random" departSpeed="0" from="222682222#1" to="28231434"/>
  <flow id="car_222682222#1_23241821#0_0009581c" type="car" begin="0" end="3600" vehsPerHour="39.19" departLane="best" departPos="random" departSpeed="0" from="222682222#1" to="23241821#0"/>
  <flow id="car_222682222#1_198876042#0_0009581c" type="car" begin="0" end="3600" vehsPerHour="33.24" departLane="best" departPos="random" departSpeed="0" from="222682222#1" to="198876042#0"/>
  <flow id="motorcycle_222682222#1_193253427#0_0009581c" type="motorcycle" begin="0" end="3600" vehsPerHour="182.75" departLane="best" departPos="random" departSpeed="0" from="222682222#1" to="193253427#0"/>
  <flow id="motorcycle_222682222#1_198876043#0_0009581c" type="motorcycle" begin="0" end="3600" vehsPerHour="155.40" departLane="best" departPos="random" departSpeed="0" from="222682222#1" to="198876043#0"/>
  <flow id="motorcycle_222682222#1_28231434_0009581c" type="motorcycle" begin="0" end="3600" vehsPerHour="138.72" departLane="best" departPos="random" departSpeed="0" from="222682222#1" to="28231434"/>
  <flow id="motorcycle_222682222#1_23241821#0_0009581c" type="motorcycle" begin="0" end="3600" vehsPerHour="115.83" departLane="best" departPos="random" departSpeed="0" from="222682222#1" to="23241821#0"/>
  <flow id="motorcycle_222682222#1_198876042#0_0009581c" type="motorcycle" begin="0" end="3600" vehsPerHour="96.57" departLane="best" departPos="random" departSpeed="0" from="222682222#1" to="198876042#0"/>
  <flow id="car_193253433#2_198876043#0_0009581c" type="car" begin="0" end="3600" vehsPerHour="42.35" departLane="best" departPos="random" departSpeed="0" from="193253433#2" to="198876043#0"/>
  <flow id="car_193253433#2_28231434_0009581c" type="car" begin="0" end="3600" vehsPerHour="34.28" departLane="best" departPos="random" departSpeed="0" from="193253433#2" to="28231434"/>
  <flow id="car_193253433#2_23241821#0_0009581c" type="car" begin="0" end="3600" vehsPerHour="32.03" departLane="best" departPos="random" departSpeed="0" from="193253433#2" to="23241821#0"/>
  <flow id="car_193253433#2_198876042#0_0009581c" type="car" begin="0" end="3600" vehsPerHour="28.29" departLane="best" departPos="random" departSpeed="0" from="193253433#2" to="198876042#0"/>
  <flow id="car_193253433#2_193253427#0_0009581c" type="car" begin="0" end="3600" vehsPerHour="22.79" departLane="best" departPos="random" departSpeed="0" from="193253433#2" to="193253427#0"/>
  <flow id="motorcycle_193253433#2_198876043#0_0009581c" type="motorcycle" begin="0" end="3600" vehsPerHour="113.68" departLane="best" departPos="random" departSpeed="0" from="193253433#2" to="198876043#0"/>
  <flow id="motorcycle_193253433#2_28231434_0009581c" type="motorcycle" begin="0" end="3600" vehsPerHour="98.78" departLane="best" departPos="random" departSpeed="0" from="193253433#2" to="28231434"/>
  <flow id="motorcycle_193253433#2_23241821#0_0009581c" type="motorcycle" begin="0" end="3600" vehsPerHour="93.93" departLane="best" departPos="random" departSpeed="0" from="193253433#2" to="23241821#0"/>
  <flow id="motorcycle_193253433#2_198876042#0_0009581c" type="motorcycle" begin="0" end="3600" vehsPerHour="79.50" departLane="best" departPos="random" departSpeed="0" from="193253433#2" to="198876042#0"/>
  <flow id="motorcycle_193253433#2_193253427#0_0009581c" type="motorcycle" begin="0" end="3600" vehsPerHour="68.54" departLane="best" departPos="random" departSpeed="0" from="193253433#2" to="193253427#0"/>
  <flow id="car_198876045#1_28231434_0009581c" type="car" begin="0" end="3600" vehsPerHour="33.81" departLane="best" departPos="random" departSpeed="0" from="198876045#1" to="28231434"/>
  <flow id="car_198876045#1_23241821#0_0009581c" type="car" begin="0" end="3600" vehsPerHour="30.38" departLane="best" departPos="random" departSpeed="0" from="198876045#1" to="23241821#0"/>
  <flow id="car_198876045#1_198876042#0_0009581c" type="car" begin="0" end="3600" vehsPerHour="26.03" departLane="best" departPos="random" departSpeed="0" from="198876045#1" to="198876042#0"/>
  <flow id="car_198876045#1_193253427#0_0009581c" type="car" begin="0" end="3600" vehsPerHour="23.17" departLane="best" departPos="random" departSpeed="0" from="198876045#1" to="193253427#0"/>
  <flow id="car_198876045#1_198876043#2_0009581c" type="car" begin="0" end="3600" vehsPerHour="19.45" departLane="best" departPos="random" departSpeed="0" from="198876045#1" to="198876043#2"/>
  <flow id="motorcycle_198876045#1_28231434_0009581c" type="motorcycle" begin="0" end="3600" vehsPerHour="101.03" departLane="best" departPos="random" departSpeed="0" from="198876045#1" to="28231434"/>
  <flow id="motorcycle_198876045#1_23241821#0_0009581c" type="motorcycle" begin="0" end="3600" vehsPerHour="86.89" departLane="best" departPos="random" departSpeed="0" from="198876045#1" to="23241821#0"/>
  <flow id="motorcycle_198876045#1_198876042#0_0009581c" type="motorcycle" begin="0" end="3600" vehsPerHour="83.47" departLane="best" departPos="random" departSpeed="0" from="198876045#1" to="198876042#0"/>
  <flow id="motorcycle_198876045#1_193253427#0_0009581c" type="motorcycle" begin="0" end="3600" vehsPerHour="73.71" departLane="best" departPos="random" departSpeed="0" from="198876045#1" to="193253427#0"/>
  <flow id="motorcycle_198876045#1_198876043#2_0009581c" type="motorcycle" begin="0" end="3600" vehsPerHour="65.68" departLane="best" departPos="random" departSpeed="0" from="198876045#1" to="198876043#2"/>
  <flow id="car_-28231434_23241821#0_0009581c" type="car" begin="0" end="3600" vehsPerHour="24.43" departLane="best" departPos="random" departSpeed="0" from="-28231434" to="23241821#0"/>
  <flow id="car_-28231434_198876042#0_0009581c" type="car" begin="0" end="3600" vehsPerHour="19.44" departLane="best" departPos="random" departSpeed="0" from="-28231434" to="198876042#0"/>
  <flow id="car_-28231434_193253427#0_0009581c" type="car" begin="0" end="3600" vehsPerHour="16.18" departLane="best" departPos="random" departSpeed="0" from="-28231434" to="193253427#0"/>
  <flow id="car_-28231434_198876043#2_0009581c" type="car" begin="0" end="3600" vehsPerHour="16.02" departLane="best" departPos="random" departSpeed="0" from="-28231434" to="198876043#2"/>
  <flow id="car_-28231434_28231434_0009581c" type="car" begin="0" end="3600" vehsPerHour="13.89" departLane="best" departPos="random" departSpeed="0" from="-28231434" to="28231434"/>
  <flow id="motorcycle_-28231434_23241821#0_0009581c" type="motorcycle" begin="0" end="3600" vehsPerHour="64.46" departLane="best" departPos="random" departSpeed="0" from="-28231434" to="23241821#0"/>
  <flow id="motorcycle_-28231434_198876042#0_0009581c" type="motorcycle" begin="0" end="3600" vehsPerHour="62.15" departLane="best" departPos="random" departSpeed="0" from="-28231434" to="198876042#0"/>
  <flow id="motorcycle_-28231434_193253427#0_0009581c" type="motorcycle" begin="0" end="3600" vehsPerHour="53.10" departLane="best" departPos="random" departSpeed="0" from="-28231434" to="193253427#0"/>
  <flow id="motorcycle_-28231434_198876043#2_0009581c" type="motorcycle" begin="0" end="3600" vehsPerHour="49.53" departLane="best" departPos="random" departSpeed="0" from="-28231434" to="198876043#2"/>
  <flow id="motorcycle_-28231434_28231434_0009581c" type="motorcycle" begin="0" end="3600" vehsPerHour="39.74" departLane="best" departPos="random" departSpeed="0" from="-28231434" to="28231434"/>
  <flow id="car_-55029244#0_198876042#0_0009581c" type="car" begin="0" end="3600" vehsPerHour="27.41" departLane="best" departPos="random" departSpeed="0" from="-55029244#0" to="198876042#0"/>
  <flow id="car_-55029244#0_193253427#0_0009581c" type="car" begin="0" end="3600" vehsPerHour="24.30" departLane="best" departPos="random" departSpeed="0" from="-55029244#0" to="193253427#0"/>
  <flow id="car_-55029244#0_198876043#2_0009581c" type="car" begin="0" end="3600" vehsPerHour="20.86" departLane="best" departPos="random" departSpeed="0" from="-55029244#0" to="198876043#2"/>
  <flow id="car_-55029244#0_28231434_0009581c" type="car" begin="0" end="3600" vehsPerHour="16.12" departLane="best" departPos="random" departSpeed="0" from="-55029244#0" to="28231434"/>
  <flow id="car_-55029244#0_23241821#0_0009581c" type="car" begin="0" end="3600" vehsPerHour="13.57" departLane="best" departPos="random" departSpeed="0" from="-55029244#0" to="23241821#0"/>
  <flow id="motorcycle_-55029244#0_198876042#0_0009581c" type="motorcycle" begin="0" end="3600" vehsPerHour="77.84" departLane="best" departPos="random" departSpeed="0" from="-55029244#0" to="198876042#0"/>
  <flow id="motorcycle_-55029244#0_193253427#0_0009581c" type="motorcycle" begin="0" end="3600" vehsPerHour="64.77" departLane="best" departPos="random" departSpeed="0" from="-55029244#0" to="193253427#0"/>
  <flow id="motorcycle_-55029244#0_198876043#2_0009581c" type="motorcycle" begin="0" end="3600" vehsPerHour="58.70" departLane="best" departPos="random" departSpeed="0" from="-55029244#0" to="198876043#2"/>
  <flow id="motorcycle_-55029244#0_28231434_0009581c" type="motorcycle" begin="0" end="3600" vehsPerHour="55.50" departLane="best" departPos="random" departSpeed="0" from="-55029244#0" to="28231434"/>
  <flow id="motorcycle_-55029244#0_23241821#0_0009581c" type="motorcycle" begin="0" end="3600" vehsPerHour="46.24" departLane="best" departPos="random" departSpeed="0" from="-55029244#0" to="23241821#0"/>
  <flow id="car_34241530#0_198876042#0_0009581c" type="car" begin="0" end="3600" vehsPerHour="25.65" departLane="best" departPos="random" departSpeed="0" from="34241530#0" to="198876042#0"/>
  <flow id="car_34241530#0_193253427#0_0009581c" type="car" begin="0" end="3600" vehsPerHour="23.82" departLane="best" departPos="random" departSpeed="0" from="34241530#0" to="193253427#0"/>
  <flow id="car_34241530#0_198876043#2_0009581c" type="car" begin="0" end="3600" vehsPerHour="19.29" departLane="best" departPos="random" departSpeed="0" from="34241530#0" to="198876043#2"/>
  <flow id="car_34241530#0_28231434_0009581c" type="car" begin="0" end="3600" vehsPerHour="17.11" departLane="best" departPos="random" departSpeed="0" from="34241530#0" to="28231434"/>
  <flow id="car_34241530#0_23241821#0_0009581c" type="car" begin="0" end="3600" vehsPerHour="13.72" departLane="best" departPos="random" departSpeed="0" from="34241530#0" to="23241821#0"/>
  <flow id="motorcycle_34241530#0_198876042#0_0009581c" type="motorcycle" begin="0" end="3600" vehsPerHour="80.55" departLane="best" departPos="random" departSpeed="0" from="34241530#0" to="198876042#0"/>
  <flow id="motorcycle_34241530#0_193253427#0_0009581c" type="motorcycle" begin="0" end="3600" vehsPerHour="67.82" departLane="best" departPos="random" departSpeed="0" from="34241530#0" to="193253427#0"/>
  <flow id="motorcycle_34241530#0_198876043#2_0009581c" type="motorcycle" begin="0" end="3600" vehsPerHour="59.51" departLane="best" departPos="random" departSpeed="0" from="34241530#0" to="198876043#2"/>
  <flow id="motorcycle_34241530#0_28231434_0009581c" type="motorcycle" begin="0" end="3600" vehsPerHour="56.53" departLane="best" departPos="random" departSpeed="0" from="34241530#0" to="28231434"/>
  <flow id="motorcycle_34241530#0_23241821#0_0009581c" type="motorcycle" begin="0" end="3600" vehsPerHour="46.45" departLane="best" departPos="random" departSpeed="0" from="34241530#0" to="23241821#0"/>
  <flow id="truck_34241530#0_198876042#0_0009581c" type="truck" begin="0" end="3600" vehsPerHour="12.23" departLane="best" departPos="random" departSpeed="0" from="34241530#0" to="198876042#0"/>
</routes>
