<routes>
<vType id="car" vClass="passenger" accel="2.6" decel="4.5" sigma="0.5" length="5.0" maxSpeed="13.9"/>
<vType id="motorcycle" vClass="motorcycle" accel="3.0" decel="5.0" sigma="0.5" length="2.0" maxSpeed="14.0"/>
<vType id="truck" vClass="truck" accel="1.2" decel="3.5" sigma="0.5" length="12.0" maxSpeed="10.0"/>

  <flow id="car_222682222#1_193253427#0_0003c704" type="car" begin="0" end="3600" vehsPerHour="63.42" departLane="best" departPos="random" departSpeed="0" from="222682222#1" to="193253427#0"/>
  <flow id="car_222682222#1_198876043#0_0003c704" type="car" begin="0" end="3600" vehsPerHour="48.07" departLane="best" departPos="random" departSpeed="0" from="222682222#1" to="198876043#0"/>
  <flow id="car_222682222#1_28231434_0003c704" type="car" begin="0" end="3600" vehsPerHour="49.44" departLane="best" departPos="random" departSpeed="0" from="222682222#1" to="28231434"/>
  <flow id="car_222682222#1_23241821#0_0003c704" type="car" begin="0" end="3600" vehsPerHour="40.85" departLane="best" departPos="random" departSpeed="0" from="222682222#1" to="23241821#0"/>
  <flow id="car_222682222#1_198876042#0_0003c704" type="car" begin="0" end="3600" vehsPerHour="35.33" departLane="best" departPos="random" departSpeed="0" from="222682222#1" to="198876042#0"/>
  <flow id="motorcycle_222682222#1_193253427#0_0003c704" type="motorcycle" begin="0" end="3600" vehsPerHour="174.12" departLane="best" departPos="random" departSpeed="0" from="222682222#1" to="193253427#0"/>
  <flow id="motorcycle_222682222#1_198876043#0_0003c704" type="motorcycle" begin="0" end="3600" vehsPerHour="147.43" departLane="best" departPos="random" departSpeed="0" from="222682222#1" to="198876043#0"/>
  <flow id="motorcycle_222682222#1_28231434_0003c704" type="motorcycle" begin="0" end="3600" vehsPerHour="134.64" departLane="best" departPos="random" departSpeed="0" from="222682222#1" to="28231434"/>
  <flow id="motorcycle_222682222#1_23241821#0_0003c704" type="motorcycle" begin="0" end="3600" vehsPerHour="116.62" departLane="best" departPos="random" departSpeed="0" from="222682222#1" to="23241821#0"/>
  <flow id="motorcycle_222682222#1_198876042#0_0003c704" type="motorcycle" begin="0" end="3600" vehsPerHour="104.95" departLane="best" departPos="random" departSpeed="0" from="222682222#1" to="198876042#0"/>
  <flow id="car_193253433#2_198876043#0_0003c704" type="car" begin="0" end="3600" vehsPerHour="39.79" departLane="best" departPos="random" departSpeed="0" from="193253433#2" to="198876043#0"/>
  <flow id="car_193253433#2_28231434_0003c704" type="car" begin="0" end="3600" vehsPerHour="33.96" departLane="best" departPos="random" departSpeed="0" from="193253433#2" to="28231434"/>
  <flow id="car_193253433#2_23241821#0_0003c704" type="car" begin="0" end="3600" vehsPerHour="33.70" departLane="best" departPos="random" departSpeed="0" from="193253433#2" to="23241821#0"/>
  <flow id="car_193253433#2_198876042#0_0003c704" type="car" begin="0" end="3600" vehsPerHour="26.17" departLane="best" departPos="random" departSpeed="0" from="193253433#2" to="198876042#0"/>
  <flow id="car_193253433#2_193253427#0_0003c704" type="car" begin="0" end="3600" vehsPerHour="22.43" departLane="best" departPos="random" departSpeed="0" from="193253433#2" to="193253427#0"/>
  <flow id="motorcycle_193253433#2_198876043#0_0003c704" type="motorcycle" begin="0" end="3600" vehsPerHour="119.16" departLane="best" departPos="random" departSpeed="0" from="193253433#2" to="198876043#0"/>
  <flow id="motorcycle_193253433#2_28231434_0003c704" type="motorcycle" begin="0" end="3600" vehsPerHour="102.52" departLane="best" departPos="random" departSpeed="0" from="193253433#2" to="28231434"/>
  <flow id="motorcycle_193253433#2_23241821#0_0003c704" type="motorcycle" begin="0" end="3600" vehsPerHour="97.19" departLane="best" departPos="random" departSpeed="0" from="193253433#2" to="23241821#0"/>
  <flow id="motorcycle_193253433#2_198876042#0_0003c704" type="motorcycle" begin="0" end="3600" vehsPerHour="78.85" departLane="best" departPos="random" departSpeed="0" from="193253433#2" to="198876042#0"/>
  <flow id="motorcycle_193253433#2_193253427#0_0003c704" type="motorcycle" begin="0" end="3600" vehsPerHour="66.25" departLane="best" departPos="random" departSpeed="0" from="193253433#2" to="193253427#0"/>
  <flow id="car_198876045#1_28231434_0003c704" type="car" begin="0" end="3600" vehsPerHour="34.59" departLane="best" departPos="random" departSpeed="0" from="198876045#1" to="28231434"/>
  <flow id="car_198876045#1_23241821#0_0003c704" type="car" begin="0" end="3600" vehsPerHour="30.14" departLane="best" departPos="random" departSpeed="0" from="198876045#1" to="23241821#0"/>
  <flow id="car_198876045#1_198876042#0_0003c704" type="car" begin="0" end="3600" vehsPerHour="28.25" departLane="best" departPos="random" departSpeed="0" from="198876045#1" to="198876042#0"/>
  <flow id="car_198876045#1_193253427#0_0003c704" type="car" begin="0" end="3600" vehsPerHour="23.84" departLane="best" departPos="random" departSpeed="0" from="198876045#1" to="193253427#0"/>
  <flow id="car_198876045#1_198876043#2_0003c704" type="car" begin="0" end="3600" vehsPerHour="19.23" departLane="best" departPos="random" departSpeed="0" from="198876045#1" to="198876043#2"/>
  <flow id="motorcycle_198876045#1_28231434_0003c704" type="motorcycle" begin="0" end="3600" vehsPerHour="97.44" departLane="best" departPos="random" departSpeed="0" from="198876045#1" to="28231434"/>
  <flow id="motorcycle_198876045#1_23241821#0_0003c704" type="motorcycle" begin="0" end="3600" vehsPerHour="89.01" departLane="best" departPos="random" departSpeed="0" from="198876045#1" to="23241821#0"/>
  <flow id="motorcycle_198876045#1_198876042#0_0003c704" type="motorcycle" begin="0" end="3600" vehsPerHour="83.29" departLane="best" departPos="random" departSpeed="0" from="198876045#1" to="198876042#0"/>
  <flow id="motorcycle_198876045#1_193253427#0_0003c704" type="motorcycle" begin="0" end="3600" vehsPerHour="77.71" departLane="best" departPos="random" departSpeed="0" from="198876045#1" to="193253427#0"/>
  <flow id="motorcycle_198876045#1_198876043#2_0003c704" type="motorcycle" begin="0" end="3600" vehsPerHour="64.59" departLane="best" departPos="random" departSpeed="0" from="198876045#1" to="198876043#2"/>
  <flow id="car_-28231434_23241821#0_0003c704" type="car" begin="0" end="3600" vehsPerHour="24.21" departLane="best" departPos="random" departSpeed="0" from="-28231434" to="23241821#0"/>
  <flow id="car_-28231434_198876042#0_0003c704" type="car" begin="0" end="3600" vehsPerHour="20.91" departLane="best" departPos="random" departSpeed="0" from="-28231434" to="198876042#0"/>
  <flow id="car_-28231434_193253427#0_0003c704" type="car" begin="0" end="3600" vehsPerHour="16.94" departLane="best" departPos="random" departSpeed="0" from="-28231434" to="193253427#0"/>
  <flow id="car_-28231434_198876043#2_0003c704" type="car" begin="0" end="3600" vehsPerHour="16.14" departLane="best" departPos="random" departSpeed="0" from="-28231434" to="198876043#2"/>
  <flow id="car_-28231434_28231434_0003c704" type="car" begin="0" end="3600" vehsPerHour="13.40" departLane="best" departPos="random" departSpeed="0" from="-28231434" to="28231434"/>
  <flow id="motorcycle_-28231434_23241821#0_0003c704" type="motorcycle" begin="0" end="3600" vehsPerHour="66.43" departLane="best" departPos="random" departSpeed="0" from="-28231434" to="23241821#0"/>
  <flow id="motorcycle_-28231434_198876042#0_0003c704" type="motorcycle" begin="0" end="3600" vehsPerHour="58.92" departLane="best" departPos="random" departSpeed="0" from="-28231434" to="198876042#0"/>
  <flow id="motorcycle_-28231434_193253427#0_0003c704" type="motorcycle" begin="0" end="3600" vehsPerHour="53.15" departLane="best" departPos="random" departSpeed="0" from="-28231434" to="193253427#0"/>
  <flow id="motorcycle_-28231434_198876043#2_0003c704" type="motorcycle" begin="0" end="3600" vehsPerHour="47.45" departLane="best" departPos="random" departSpeed="0" from="-28231434" to="198876043#2"/>
  <flow id="motorcycle_-28231434_28231434_0003c704" type="motorcycle" begin="0" end="3600" vehsPerHour="42.06" departLane="best" departPos="random" departSpeed="0" from="-28231434" to="28231434"/>
  <flow id="car_-55029244#0_198876042#0_0003c704" type="car" begin="0" end="3600" vehsPerHour="27.57" departLane="best" departPos="random" departSpeed="0" from="-55029244#0" to="198876042#0"/>
  <flow id="car_-55029244#0_193253427#0_0003c704" type="car" begin="0" end="3600" vehsPerHour="23.25" departLane="best" departPos="random" departSpeed="0" from="-55029244#0" to="193253427#0"/>
  <flow id="car_-55029244#0_198876043#2_0003c704" type="car" begin="0" end="3600" vehsPerHour="19.66" departLane="best" departPos="random" departSpeed="0" from="-55029244#0" to="198876043#2"/>
  <flow id="car_-55029244#0_28231434_0003c704" type="car" begin="0" end="3600" vehsPerHour="17.39" departLane="best" departPos="random" departSpeed="0" from="-55029244#0" to="28231434"/>
  <flow id="car_-55029244#0_23241821#0_0003c704" type="car" begin="0" end="3600" vehsPerHour="13.73" departLane="best" departPos="random" departSpeed="0" from="-55029244#0" to="23241821#0"/>
  <flow id="motorcycle_-55029244#0_198876042#0_0003c704" type="motorcycle" begin="0" end="3600" vehsPerHour="79.36" departLane="best" departPos="random" departSpeed="0" from="-55029244#0" to="198876042#0"/>
  <flow id="motorcycle_-55029244#0_193253427#0_0003c704" type="motorcycle" begin="0" end="3600" vehsPerHour="67.08" departLane="best" departPos="random" departSpeed="0" from="-55029244#0" to="193253427#0"/>
  <flow id="motorcycle_-55029244#0_198876043#2_0003c704" type="motorcycle" begin="0" end="3600" vehsPerHour="59.35" departLane="best" departPos="random" departSpeed="0" from="-55029244#0" to="198876043#2"/>
  <flow id="motorcycle_-55029244#0_28231434_0003c704" type="motorcycle" begin="0" end="3600" vehsPerHour="54.41" departLane="best" departPos="random" departSpeed="0" from="-55029244#0" to="28231434"/>
  <flow id="motorcycle_-55029244#0_23241821#0_0003c704" type="motorcycle" begin="0" end="3600" vehsPerHour="46.77" departLane="best" departPos="random" departSpeed="0" from="-55029244#0" to="23241821#0"/>
  <flow id="car_34241530#0_198876042#0_0003c704" type="car" begin="0" end="3600" vehsPerHour="26.60" departLane="best" departPos="random" departSpeed="0" from="34241530#0" to="198876042#0"/>
  <flow id="car_34241530#0_193253427#0_0003c704" type="car" begin="0" end="3600" vehsPerHour="23.99" departLane="best" departPos="random" departSpeed="0" from="34241530#0" to="193253427#0"/>
  <flow id="car_34241530#0_198876043#2_0003c704" type="car" begin="0" end="3600" vehsPerHour="20.31" departLane="best" departPos="random" departSpeed="0" from="34241530#0" to="198876043#2"/>
  <flow id="car_34241530#0_28231434_0003c704" type="car" begin="0" end="3600" vehsPerHour="17.35" departLane="best" departPos="random" departSpeed="0" from="34241530#0" to="28231434"/>
  <flow id="car_34241530#0_23241821#0_0003c704" type="car" begin="0" end="3600" vehsPerHour="13.64" departLane="best" departPos="random" departSpeed="0" from="34241530#0" to="23241821#0"/>
  <flow id="motorcycle_34241530#0_198876042#0_0003c704" type="motorcycle" begin="0" end="3600" vehsPerHour="81.63" departLane="best" departPos="random" departSpeed="0" from="34241530#0" to="198876042#0"/>
  <flow id="motorcycle_34241530#0_193253427#0_0003c704" type="motorcycle" begin="0" end="3600" vehsPerHour="65.68" departLane="best" departPos="random" departSpeed="0" from="34241530#0" to="193253427#0"/>
  <flow id="motorcycle_34241530#0_198876043#2_0003c704" type="motorcycle" begin="0" end="3600" vehsPerHour="61.63" departLane="best" departPos="random" departSpeed="0" from="34241530#0" to="198876043#2"/>
  <flow id="motorcycle_34241530#0_28231434_0003c704" type="motorcycle" begin="0" end="3600" vehsPerHour="51.37" departLane="best" departPos="random" departSpeed="0" from="34241530#0" to="28231434"/>
  <flow id="motorcycle_34241530#0_23241821#0_0003c704" type="motorcycle" begin="0" end="3600" vehsPerHour="46.24" departLane="best" departPos="random" departSpeed="0" from="34241530#0" to="23241821#0"/>
  <flow id="truck_34241530#0_198876042#0_0003c704" type="truck" begin="0" end="3600" vehsPerHour="12.30" departLane="best" departPos="random" departSpeed="0" from="34241530#0" to="198876042#0"/>
</routes>
