<routes>
<vType id="car" vClass="passenger" accel="2.6" decel="4.5" sigma="0.5" length="5.0" maxSpeed="13.9"/>
<vType id="motorcycle" vClass="motorcycle" accel="3.0" decel="5.0" sigma="0.5" length="2.0" maxSpeed="14.0"/>
<vType id="truck" vClass="truck" accel="1.2" decel="3.5" sigma="0.5" length="12.0" maxSpeed="10.0"/>

  <flow id="car_222682222#1_193253427#0_00049280" type="car" begin="0" end="3600" vehsPerHour="60.91" departLane="best" departPos="random" departSpeed="0" from="222682222#1" to="193253427#0"/>
  <flow id="car_222682222#1_198876043#0_00049280" type="car" begin="0" end="3600" vehsPerHour="49.38" departLane="best" departPos="random" departSpeed="0" from="222682222#1" to="198876043#0"/>
  <flow id="car_222682222#1_28231434_00049280" type="car" begin="0" end="3600" vehsPerHour="51.15" departLane="best" departPos="random" departSpeed="0" from="222682222#1" to="28231434"/>
  <flow id="car_222682222#1_23241821#0_00049280" type="car" begin="0" end="3600" vehsPerHour="39.27" departLane="best" departPos="random" departSpeed="0" from="222682222#1" to="23241821#0"/>
  <flow id="car_222682222#1_198876042#0_00049280" type="car" begin="0" end="3600" vehsPerHour="33.28" departLane="best" departPos="random" departSpeed="0" from="222682222#1" to="198876042#0"/>
  <flow id="motorcycle_222682222#1_193253427#0_00049280" type="motorcycle" begin="0" end="3600" vehsPerHour="171.14" departLane="best" departPos="random" departSpeed="0" from="222682222#1" to="193253427#0"/>
  <flow id="motorcycle_222682222#1_198876043#0_00049280" type="motorcycle" begin="0" end="3600" vehsPerHour="153.26" departLane="best" departPos="random" departSpeed="0" from="222682222#1" to="198876043#0"/>
  <flow id="motorcycle_222682222#1_28231434_00049280" type="motorcycle" begin="0" end="3600" vehsPerHour="141.82" departLane="best" departPos="random" departSpeed="0" from="222682222#1" to="28231434"/>
  <flow id="motorcycle_222682222#1_23241821#0_00049280" type="motorcycle" begin="0" end="3600" vehsPerHour="110.21" departLane="best" departPos="random" departSpeed="0" from="222682222#1" to="23241821#0"/>
  <flow id="motorcycle_222682222#1_198876042#0_00049280" type="motorcycle" begin="0" end="3600" vehsPerHour="105.49" departLane="best" departPos="random" departSpeed="0" from="222682222#1" to="198876042#0"/>
  <flow id="car_193253433#2_198876043#0_00049280" type="car" begin="0" end="3600" vehsPerHour="40.59" departLane="best" departPos="random" departSpeed="0" from="193253433#2" to="198876043#0"/>
  <flow id="car_193253433#2_28231434_00049280" type="car" begin="0" end="3600" vehsPerHour="34.14" departLane="best" departPos="random" departSpeed="0" from="193253433#2" to="28231434"/>
  <flow id="car_193253433#2_23241821#0_00049280" type="car" begin="0" end="3600" vehsPerHour="34.85" departLane="best" departPos="random" departSpeed="0" from="193253433#2" to="23241821#0"/>
  <flow id="car_193253433#2_198876042#0_00049280" type="car" begin="0" end="3600" vehsPerHour="26.06" departLane="best" departPos="random" departSpeed="0" from="193253433#2" to="198876042#0"/>
  <flow id="car_193253433#2_193253427#0_00049280" type="car" begin="0" end="3600" vehsPerHour="22.83" departLane="best" departPos="random" departSpeed="0" from="193253433#2" to="193253427#0"/>
  <flow id="motorcycle_193253433#2_198876043#0_00049280" type="motorcycle" begin="0" end="3600" vehsPerHour="112.60" departLane="best" departPos="random" departSpeed="0" from="193253433#2" to="198876043#0"/>
  <flow id="motorcycle_193253433#2_28231434_00049280" type="motorcycle" begin="0" end="3600" vehsPerHour="103.85" departLane="best" departPos="random" departSpeed="0" from="193253433#2" to="28231434"/>
  <flow id="motorcycle_193253433#2_23241821#0_00049280" type="motorcycle" begin="0" end="3600" vehsPerHour="93.42" departLane="best" departPos="random" departSpeed="0" from="193253433#2" to="23241821#0"/>
  <flow id="motorcycle_193253433#2_198876042#0_00049280" type="motorcycle" begin="0" end="3600" vehsPerHour="84.35" departLane="best" departPos="random" departSpeed="0" from="193253433#2" to="198876042#0"/>
  <flow id="motorcycle_193253433#2_193253427#0_00049280" type="motorcycle" begin="0" end="3600" vehsPerHour="68.87" departLane="best" departPos="random" departSpeed="0" from="193253433#2" to="193253427#0"/>
  <flow id="car_198876045#1_28231434_00049280" type="car" begin="0" end="3600" vehsPerHour="32.66" departLane="best" departPos="random" departSpeed="0" from="198876045#1" to="28231434"/>
  <flow id="car_198876045#1_23241821#0_00049280" type="car" begin="0" end="3600" vehsPerHour="29.39" departLane="best" departPos="random" departSpeed="0" from="198876045#1" to="23241821#0"/>
  <flow id="car_198876045#1_198876042#0_00049280" type="car" begin="0" end="3600" vehsPerHour="26.19" departLane="best" departPos="random" departSpeed="0" from="198876045#1" to="198876042#0"/>
  <flow id="car_198876045#1_193253427#0_00049280" type="car" begin="0" end="3600" vehsPerHour="23.85" departLane="best" departPos="random" departSpeed="0" from="198876045#1" to="193253427#0"/>
  <flow id="car_198876045#1_198876043#2_00049280" type="car" begin="0" end="3600" vehsPerHour="19.34" departLane="best" departPos="random" departSpeed="0" from="198876045#1" to="198876043#2"/>
  <flow id="motorcycle_198876045#1_28231434_00049280" type="motorcycle" begin="0" end="3600" vehsPerHour="103.14" departLane="best" departPos="random" departSpeed="0" from="198876045#1" to="28231434"/>
  <flow id="motorcycle_198876045#1_23241821#0_00049280" type="motorcycle" begin="0" end="3600" vehsPerHour="85.92" departLane="best" departPos="random" departSpeed="0" from="198876045#1" to="23241821#0"/>
  <flow id="motorcycle_198876045#1_198876042#0_00049280" type="motorcycle" begin="0" end="3600" vehsPerHour="84.78" departLane="best" departPos="random" departSpeed="0" from="198876045#1" to="198876042#0"/>
  <flow id="motorcycle_198876045#1_193253427#0_00049280" type="motorcycle" begin="0" end="3600" vehsPerHour="77.42" departLane="best" departPos="random" departSpeed="0" from="198876045#1" to="193253427#0"/>
  <flow id="motorcycle_198876045#1_198876043#2_00049280" type="motorcycle" begin="0" end="3600" vehsPerHour="66.86" departLane="best" departPos="random" departSpeed="0" from="198876045#1" to="198876043#2"/>
  <flow id="car_-28231434_23241821#0_00049280" type="car" begin="0" end="3600" vehsPerHour="24.01" departLane="best" departPos="random" departSpeed="0" from="-28231434" to="23241821#0"/>
  <flow id="car_-28231434_198876042#0_00049280" type="car" begin="0" end="3600" vehsPerHour="20.73" departLane="best" departPos="random" departSpeed="0" from="-28231434" to="198876042#0"/>
  <flow id="car_-28231434_193253427#0_00049280" type="car" begin="0" end="3600" vehsPerHour="17.27" departLane="best" departPos="random" departSpeed="0" from="-28231434" to="193253427#0"/>
  <flow id="car_-28231434_198876043#2_00049280" type="car" begin="0" end="3600" vehsPerHour="17.12" departLane="best" departPos="random" departSpeed="0" from="-28231434" to="198876043#2"/>
  <flow id="car_-28231434_28231434_00049280" type="car" begin="0" end="3600" vehsPerHour="14.04" departLane="best" departPos="random" departSpeed="0" from="-28231434" to="28231434"/>
  <flow id="motorcycle_-28231434_23241821#0_00049280" type="motorcycle" begin="0" end="3600" vehsPerHour="70.22" departLane="best" departPos="random" departSpeed="0" from="-28231434" to="23241821#0"/>
  <flow id="motorcycle_-28231434_198876042#0_00049280" type="motorcycle" begin="0" end="3600" vehsPerHour="59.54" departLane="best" departPos="random" departSpeed="0" from="-28231434" to="198876042#0"/>
  <flow id="motorcycle_-28231434_193253427#0_00049280" type="motorcycle" begin="0" end="3600" vehsPerHour="52.11" departLane="best" departPos="random" departSpeed="0" from="-28231434" to="193253427#0"/>
  <flow id="motorcycle_-28231434_198876043#2_00049280" type="motorcycle" begin="0" end="3600" vehsPerHour="49.15" departLane="best" departPos="random" departSpeed="0" from="-28231434" to="198876043#2"/>
  <flow id="motorcycle_-28231434_28231434_00049280" type="motorcycle" begin="0" end="3600" vehsPerHour="39.44" departLane="best" departPos="random" departSpeed="0" from="-28231434" to="28231434"/>
  <flow id="car_-55029244#0_198876042#0_00049280" type="car" begin="0" end="3600" vehsPerHour="26.65" departLane="best" departPos="random" departSpeed="0" from="-55029244#0" to="198876042#0"/>
  <flow id="car_-55029244#0_193253427#0_00049280" type="car" begin="0" end="3600" vehsPerHour="22.41" departLane="best" departPos="random" departSpeed="0" from="-55029244#0" to="193253427#0"/>
  <flow id="car_-55029244#0_198876043#2_00049280" type="car" begin="0" end="3600" vehsPerHour="19.58" departLane="best" departPos="random" departSpeed="0" from="-55029244#0" to="198876043#2"/>
  <flow id="car_-55029244#0_28231434_00049280" type="car" begin="0" end="3600" vehsPerHour="17.61" departLane="best" departPos="random" departSpeed="0" from="-55029244#0" to="28231434"/>
  <flow id="car_-55029244#0_23241821#0_00049280" type="car" begin="0" end="3600" vehsPerHour="13.46" departLane="best" departPos="random" departSpeed="0" from="-55029244#0" to="23241821#0"/>
  <flow id="motorcycle_-55029244#0_198876042#0_00049280" type="motorcycle" begin="0" end="3600" vehsPerHour="82.11" departLane="best" departPos="random" departSpeed="0" from="-55029244#0" to="198876042#0"/>
  <flow id="motorcycle_-55029244#0_193253427#0_00049280" type="motorcycle" begin="0" end="3600" vehsPerHour="66.23" departLane="best" departPos="random" departSpeed="0" from="-55029244#0" to="193253427#0"/>
  <flow id="motorcycle_-55029244#0_198876043#2_00049280" type="motorcycle" begin="0" end="3600" vehsPerHour="60.29" departLane="best" departPos="random" departSpeed="0" from="-55029244#0" to="198876043#2"/>
  <flow id="motorcycle_-55029244#0_28231434_00049280" type="motorcycle" begin="0" end="3600" vehsPerHour="54.85" departLane="best" departPos="random" departSpeed="0" from="-55029244#0" to="28231434"/>
  <flow id="motorcycle_-55029244#0_23241821#0_00049280" type="motorcycle" begin="0" end="3600" vehsPerHour="48.73" departLane="best" departPos="random" departSpeed="0" from="-55029244#0" to="23241821#0"/>
  <flow id="car_34241530#0_198876042#0_00049280" type="car" begin="0" end="3600" vehsPerHour="26.13" departLane="best" departPos="random" departSpeed="0" from="34241530#0" to="198876042#0"/>
  <flow id="car_34241530#0_193253427#0_00049280" type="car" begin="0" end="3600" vehsPerHour="24.10" departLane="best" departPos="random" departSpeed="0" from="34241530#0" to="193253427#0"/>
  <flow id="car_34241530#0_198876043#2_00049280" type="car" begin="0" end="3600" vehsPerHour="20.53" departLane="best" departPos="random" departSpeed="0" from="34241530#0" to="198876043#2"/>
  <flow id="car_34241530#0_28231434_00049280" type="car" begin="0" end="3600" vehsPerHour="17.57" departLane="best" departPos="random" departSpeed="0" from="34241530#0" to="28231434"/>
  <flow id="car_34241530#0_23241821#0_00049280" type="car" begin="0" end="3600" vehsPerHour="13.62" departLane="best" departPos="random" departSpeed="0" from="34241530#0" to="23241821#0"/>
  <flow id="motorcycle_34241530#0_198876042#0_00049280" type="motorcycle" begin="0" end="3600" vehsPerHour="80.12" departLane="best" departPos="random" departSpeed="0" from="34241530#0" to="198876042#0"/>
  <flow id="motorcycle_34241530#0_193253427#0_00049280" type="motorcycle" begin="0" end="3600" vehsPerHour="69.08" departLane="best" departPos="random" departSpeed="0" from="34241530#0" to="193253427#0"/>
  <flow id="motorcycle_34241530#0_198876043#2_00049280" type="motorcycle" begin="0" end="3600" vehsPerHour="61.40" departLane="best" departPos="random" departSpeed="0" from="34241530#0" to="198876043#2"/>
  <flow id="motorcycle_34241530#0_28231434_00049280" type="motorcycle" begin="0" end="3600" vehsPerHour="54.26" departLane="best" departPos="random" departSpeed="0" from="34241530#0" to="28231434"/>
  <flow id="motorcycle_34241530#0_23241821#0_00049280" type="motorcycle" begin="0" end="3600" vehsPerHour="48.90" departLane="best" departPos="random" departSpeed="0" from="34241530#0" to="23241821#0"/>
  <flow id="truck_34241530#0_198876042#0_00049280" type="truck" begin="0" end="3600" vehsPerHour="12.13" departLane="best" departPos="random" departSpeed="0" from="34241530#0" to="198876042#0"/>
</routes>
