<routes>
<vType id="car" vClass="passenger" accel="2.6" decel="4.5" sigma="0.5" length="5.0" maxSpeed="13.9"/>
<vType id="motorcycle" vClass="motorcycle" accel="3.0" decel="5.0" sigma="0.5" length="2.0" maxSpeed="14.0"/>
<vType id="truck" vClass="truck" accel="1.2" decel="3.5" sigma="0.5" length="12.0" maxSpeed="10.0"/>

  <flow id="car_222682222#1_193253427#0_0007083b" type="car" begin="0" end="3600" vehsPerHour="62.88" departLane="best" departPos="random" departSpeed="0" from="222682222#1" to="193253427#0"/>
  <flow id="car_222682222#1_198876043#0_0007083b" type="car" begin="0" end="3600" vehsPerHour="49.97" departLane="best" departPos="random" departSpeed="0" from="222682222#1" to="198876043#0"/>
  <flow id="car_222682222#1_28231434_0007083b" type="car" begin="0" end="3600" vehsPerHour="48.09" departLane="best" departPos="random" departSpeed="0" from="222682222#1" to="28231434"/>
  <flow id="car_222682222#1_23241821#0_0007083b" type="car" begin="0" end="3600" vehsPerHour="40.63" departLane="best" departPos="random" departSpeed="0" from="222682222#1" to="23241821#0"/>
  <flow id="car_222682222#1_198876042#0_0007083b" type="car" begin="0" end="3600" vehsPerHour="33.73" departLane="best" departPos="random" departSpeed="0" from="222682222#1" to="198876042#0"/>
  <flow id="motorcycle_222682222#1_193253427#0_0007083b" type="motorcycle" begin="0" end="3600" vehsPerHour="173.64" departLane="best" departPos="random" departSpeed="0" from="222682222#1" to="193253427#0"/>
  <flow id="motorcycle_222682222#1_198876043#0_0007083b" type="motorcycle" begin="0" end="3600" vehsPerHour="147.53" departLane="best" departPos="random" departSpeed="0" from="222682222#1" to="198876043#0"/>
  <flow id="motorcycle_222682222#1_28231434_0007083b" type="motorcycle" begin="0" end="3600" vehsPerHour="143.30" departLane="best" departPos="random" departSpeed="0" from="222682222#1" to="28231434"/>
  <flow id="motorcycle_222682222#1_23241821#0_0007083b" type="motorcycle" begin="0" end="3600" vehsPerHour="116.79" departLane="best" departPos="random" departSpeed="0" from="222682222#1" to="23241821#0"/>
  <flow id="motorcycle_222682222#1_198876042#0_0007083b" type="motorcycle" begin="0" end="3600" vehsPerHour="99.08" departLane="best" departPos="random" departSpeed="0" from="222682222#1" to="198876042#0"/>
  <flow id="car_193253433#2_198876043#0_0007083b" type="car" begin="0" end="3600" vehsPerHour="38.79" departLane="best" departPos="random" departSpeed="0" from="193253433#2" to="198876043#0"/>
  <flow id="car_193253433#2_28231434_0007083b" type="car" begin="0" end="3600" vehsPerHour="34.25" departLane="best" departPos="random" departSpeed="0" from="193253433#2" to="28231434"/>
  <flow id="car_193253433#2_23241821#0_0007083b" type="car" begin="0" end="3600" vehsPerHour="34.10" departLane="best" departPos="random" departSpeed="0" from="193253433#2" to="23241821#0"/>
  <flow id="car_193253433#2_198876042#0_0007083b" type="car" begin="0" end="3600" vehsPerHour="28.02" departLane="best" departPos="random" departSpeed="0" from="193253433#2" to="198876042#0"/>
  <flow id="car_193253433#2_193253427#0_0007083b" type="car" begin="0" end="3600" vehsPerHour="23.81" departLane="best" departPos="random" departSpeed="0" from="193253433#2" to="193253427#0"/>
  <flow id="motorcycle_193253433#2_198876043#0_0007083b" type="motorcycle" begin="0" end="3600" vehsPerHour="117.68" departLane="best" departPos="random" departSpeed="0" from="193253433#2" to="198876043#0"/>
  <flow id="motorcycle_193253433#2_28231434_0007083b" type="motorcycle" begin="0" end="3600" vehsPerHour="104.59" departLane="best" departPos="random" departSpeed="0" from="193253433#2" to="28231434"/>
  <flow id="motorcycle_193253433#2_23241821#0_0007083b" type="motorcycle" begin="0" end="3600" vehsPerHour="97.05" departLane="best" departPos="random" departSpeed="0" from="193253433#2" to="23241821#0"/>
  <flow id="motorcycle_193253433#2_198876042#0_0007083b" type="motorcycle" begin="0" end="3600" vehsPerHour="81.91" departLane="best" departPos="random" departSpeed="0" from="193253433#2" to="198876042#0"/>
  <flow id="motorcycle_193253433#2_193253427#0_0007083b" type="motorcycle" begin="0" end="3600" vehsPerHour="69.90" departLane="best" departPos="random" departSpeed="0" from="193253433#2" to="193253427#0"/>
  <flow id="car_198876045#1_28231434_0007083b" type="car" begin="0" end="3600" vehsPerHour="34.03" departLane="best" departPos="random" departSpeed="0" from="198876045#1" to="28231434"/>
  <flow id="car_198876045#1_23241821#0_0007083b" type="car" begin="0" end="3600" vehsPerHour="31.12" departLane="best" departPos="random" departSpeed="0" from="198876045#1" to="23241821#0"/>
  <flow id="car_198876045#1_198876042#0_0007083b" type="car" begin="0" end="3600" vehsPerHour="27.63" departLane="best" departPos="random" departSpeed="0" from="198876045#1" to="198876042#0"/>
  <flow id="car_198876045#1_193253427#0_0007083b" type="car" begin="0" end="3600" vehsPerHour="23.51" departLane="best" departPos="random" departSpeed="0" from="198876045#1" to="193253427#0"/>
  <flow id="car_198876045#1_198876043#2_0007083b" type="car" begin="0" end="3600" vehsPerHour="20.25" departLane="best" departPos="random" departSpeed="0" from="198876045#1" to="198876043#2"/>
  <flow id="motorcycle_198876045#1_28231434_0007083b" type="motorcycle" begin="0" end="3600" vehsPerHour="99.06" departLane="best" departPos="random" departSpeed="0" from="198876045#1" to="28231434"/>
  <flow id="motorcycle_198876045#1_23241821#0_0007083b" type="motorcycle" begin="0" end="3600" vehsPerHour="88.15" departLane="best" departPos="random" departSpeed="0" from="198876045#1" to="23241821#0"/>
  <flow id="motorcycle_198876045#1_198876042#0_0007083b" type="motorcycle" begin="0" end="3600" vehsPerHour="79.49" departLane="best" departPos="random" departSpeed="0" from="198876045#1" to="198876042#0"/>
  <flow id="motorcycle_198876045#1_193253427#0_0007083b" type="motorcycle" begin="0" end="3600" vehsPerHour="75.67" departLane="best" departPos="random" departSpeed="0" from="198876045#1" to="193253427#0"/>
  <flow id="motorcycle_198876045#1_198876043#2_0007083b" type="motorcycle" begin="0" end="3600" vehsPerHour="65.49" departLane="best" departPos="random" departSpeed="0" from="198876045#1" to="198876043#2"/>
  <flow id="car_-28231434_23241821#0_0007083b" type="car" begin="0" end="3600" vehsPerHour="23.96" departLane="best" departPos="random" departSpeed="0" from="-28231434" to="23241821#0"/>
  <flow id="car_-28231434_198876042#0_0007083b" type="car" begin="0" end="3600" vehsPerHour="19.32" departLane="best" departPos="random" departSpeed="0" from="-28231434" to="198876042#0"/>
  <flow id="car_-28231434_193253427#0_0007083b" type="car" begin="0" end="3600" vehsPerHour="16.25" departLane="best" departPos="random" departSpeed="0" from="-28231434" to="193253427#0"/>
  <flow id="car_-28231434_198876043#2_0007083b" type="car" begin="0" end="3600" vehsPerHour="17.52" departLane="best" departPos="random" departSpeed="0" from="-28231434" to="198876043#2"/>
  <flow id="car_-28231434_28231434_0007083b" type="car" begin="0" end="3600" vehsPerHour="12.98" departLane="best" departPos="random" departSpeed="0" from="-28231434" to="28231434"/>
  <flow id="motorcycle_-28231434_23241821#0_0007083b" type="motorcycle" begin="0" end="3600" vehsPerHour="67.02" departLane="best" departPos="random" departSpeed="0" from="-28231434" to="23241821#0"/>
  <flow id="motorcycle_-28231434_198876042#0_0007083b" type="motorcycle" begin="0" end="3600" vehsPerHour="62.15" departLane="best" departPos="random" departSpeed="0" from="-28231434" to="198876042#0"/>
  <flow id="motorcycle_-28231434_193253427#0_0007083b" type="motorcycle" begin="0" end="3600" vehsPerHour="52.80" departLane="best" departPos="random" departSpeed="0" from="-28231434" to="193253427#0"/>
  <flow id="motorcycle_-28231434_198876043#2_0007083b" type="motorcycle" begin="0" end="3600" vehsPerHour="48.53" departLane="best" departPos="random" departSpeed="0" from="-28231434" to="198876043#2"/>
  <flow id="motorcycle_-28231434_28231434_0007083b" type="motorcycle" begin="0" end="3600" vehsPerHour="41.76" departLane="best" departPos="random" departSpeed="0" from="-28231434" to="28231434"/>
  <flow id="car_-55029244#0_198876042#0_0007083b" type="car" begin="0" end="3600" vehsPerHour="27.71" departLane="best" departPos="random" departSpeed="0" from="-55029244#0" to="198876042#0"/>
  <flow id="car_-55029244#0_193253427#0_0007083b" type="car" begin="0" end="3600" vehsPerHour="24.36" departLane="best" departPos="random" departSpeed="0" from="-55029244#0" to="193253427#0"/>
  <flow id="car_-55029244#0_198876043#2_0007083b" type="car" begin="0" end="3600" vehsPerHour="20.08" departLane="best" departPos="random" departSpeed="0" from="-55029244#0" to="198876043#2"/>
  <flow id="car_-55029244#0_28231434_0007083b" type="car" begin="0" end="3600" vehsPerHour="16.75" departLane="best" departPos="random" departSpeed="0" from="-55029244#0" to="28231434"/>
  <flow id="car_-55029244#0_23241821#0_0007083b" type="car" begin="0" end="3600" vehsPerHour="13.36" departLane="best" departPos="random" departSpeed="0" from="-55029244#0" to="23241821#0"/>
  <flow id="motorcycle_-55029244#0_198876042#0_0007083b" type="motorcycle" begin="0" end="3600" vehsPerHour="80.66" departLane="best" departPos="random" departSpeed="0" from="-55029244#0" to="198876042#0"/>
  <flow id="motorcycle_-55029244#0_193253427#0_0007083b" type="motorcycle" begin="0" end="3600" vehsPerHour="66.60" departLane="best" departPos="random" departSpeed="0" from="-55029244#0" to="193253427#0"/>
  <flow id="motorcycle_-55029244#0_198876043#2_0007083b" type="motorcycle" begin="0" end="3600" vehsPerHour="58.11" departLane="best" departPos="random" departSpeed="0" from="-55029244#0" to="198876043#2"/>
  <flow id="motorcycle_-55029244#0_28231434_0007083b" type="motorcycle" begin="0" end="3600" vehsPerHour="55.13" departLane="best" departPos="random" departSpeed="0" from="-55029244#0" to="28231434"/>
  <flow id="motorcycle_-55029244#0_23241821#0_0007083b" type="motorcycle" begin="0" end="3600" vehsPerHour="47.81" departLane="best" departPos="random" departSpeed="0" from="-55029244#0" to="23241821#0"/>
  <flow id="car_34241530#0_198876042#0_0007083b" type="car" begin="0" end="3600" vehsPerHour="25.64" departLane="best" departPos="random" departSpeed="0" from="34241530#0" to="198876042#0"/>
  <flow id="car_34241530#0_193253427#0_0007083b" type="car" begin="0" end="3600" vehsPerHour="22.84" departLane="best" departPos="random" departSpeed="0" from="34241530#0" to="193253427#0"/>
  <flow id="car_34241530#0_198876043#2_0007083b" type="car" begin="0" end="3600" vehsPerHour="20.98" departLane="best" departPos="random" departSpeed="0" from="34241530#0" to="198876043#2"/>
  <flow id="car_34241530#0_28231434_0007083b" type="car" begin="0" end="3600" vehsPerHour="17.33" departLane="best" departPos="random" departSpeed="0" from="34241530#0" to="28231434"/>
  <flow id="car_34241530#0_23241821#0_0007083b" type="car" begin="0" end="3600" vehsPerHour="13.08" departLane="best" departPos="random" departSpeed="0" from="34241530#0" to="23241821#0"/>
  <flow id="motorcycle_34241530#0_198876042#0_0007083b" type="motorcycle" begin="0" end="3600" vehsPerHour="84.79" departLane="best" departPos="random" departSpeed="0" from="34241530#0" to="198876042#0"/>
  <flow id="motorcycle_34241530#0_193253427#0_0007083b" type="motorcycle" begin="0" end="3600" vehsPerHour="64.39" departLane="best" departPos="random" departSpeed="0" from="34241530#0" to="193253427#0"/>
  <flow id="motorcycle_34241530#0_198876043#2_0007083b" type="motorcycle" begin="0" end="3600" vehsPerHour="60.04" departLane="best" departPos="random" departSpeed="0" from="34241530#0" to="198876043#2"/>
  <flow id="motorcycle_34241530#0_28231434_0007083b" type="motorcycle" begin="0" end="3600" vehsPerHour="56.52" departLane="best" departPos="random" departSpeed="0" from="34241530#0" to="28231434"/>
  <flow id="motorcycle_34241530#0_23241821#0_0007083b" type="motorcycle" begin="0" end="3600" vehsPerHour="48.21" departLane="best" departPos="random" departSpeed="0" from="34241530#0" to="23241821#0"/>
  <flow id="truck_34241530#0_198876042#0_0007083b" type="truck" begin="0" end="3600" vehsPerHour="12.06" departLane="best" departPos="random" departSpeed="0" from="34241530#0" to="198876042#0"/>
</routes>
