<routes>
<vType id="car" vClass="passenger" accel="2.6" decel="4.5" sigma="0.5" length="5.0" maxSpeed="13.9"/>
<vType id="motorcycle" vClass="motorcycle" accel="3.0" decel="5.0" sigma="0.5" length="2.0" maxSpeed="14.0"/>
<vType id="truck" vClass="truck" accel="1.2" decel="3.5" sigma="0.5" length="12.0" maxSpeed="10.0"/>

  <flow id="car_222682222#1_193253427#0_000cad89" type="car" begin="0" end="3600" vehsPerHour="57.91" departLane="best" departPos="random" departSpeed="0" from="222682222#1" to="193253427#0"/>
  <flow id="car_222682222#1_198876043#0_000cad89" type="car" begin="0" end="3600" vehsPerHour="48.27" departLane="best" departPos="random" departSpeed="0" from="222682222#1" to="198876043#0"/>
  <flow id="car_222682222#1_28231434_000cad89" type="car" begin="0" end="3600" vehsPerHour="49.87" departLane="best" departPos="random" departSpeed="0" from="222682222#1" to="28231434"/>
  <flow id="car_222682222#1_23241821#0_000cad89" type="car" begin="0" end="3600" vehsPerHour="39.93" departLane="best" departPos="random" departSpeed="0" from="222682222#1" to="23241821#0"/>
  <flow id="car_222682222#1_198876042#0_000cad89" type="car" begin="0" end="3600" vehsPerHour="32.23" departLane="best" departPos="random" departSpeed="0" from="222682222#1" to="198876042#0"/>
  <flow id="motorcycle_222682222#1_193253427#0_000cad89" type="motorcycle" begin="0" end="3600" vehsPerHour="181.03" departLane="best" departPos="random" departSpeed="0" from="222682222#1" to="193253427#0"/>
  <flow id="motorcycle_222682222#1_198876043#0_000cad89" type="motorcycle" begin="0" end="3600" vehsPerHour="152.53" departLane="best" departPos="random" departSpeed="0" from="222682222#1" to="198876043#0"/>
  <flow id="motorcycle_222682222#1_28231434_000cad89" type="motorcycle" begin="0" end="3600" vehsPerHour="146.26" departLane="best" departPos="random" departSpeed="0" from="222682222#1" to="28231434"/>
  <flow id="motorcycle_222682222#1_23241821#0_000cad89" type="motorcycle" begin="0" end="3600" vehsPerHour="119.82" departLane="best" departPos="random" departSpeed="0" from="222682222#1" to="23241821#0"/>
  <flow id="motorcycle_222682222#1_198876042#0_000cad89" type="motorcycle" begin="0" end="3600" vehsPerHour="97.59" departLane="best" departPos="random" departSpeed="0" from="222682222#1" to="198876042#0"/>
  <flow id="car_193253433#2_198876043#0_000cad89" type="car" begin="0" end="3600" vehsPerHour="41.75" departLane="best" departPos="random" departSpeed="0" from="193253433#2" to="198876043#0"/>
  <flow id="car_193253433#2_28231434_000cad89" type="car" begin="0" end="3600" vehsPerHour="33.14" departLane="best" departPos="random" departSpeed="0" from="193253433#2" to="28231434"/>
  <flow id="car_193253433#2_23241821#0_000cad89" type="car" begin="0" end="3600" vehsPerHour="34.46" departLane="best" departPos="random" departSpeed="0" from="193253433#2" to="23241821#0"/>
  <flow id="car_193253433#2_198876042#0_000cad89" type="car" begin="0" end="3600" vehsPerHour="27.17" departLane="best" departPos="random" departSpeed="0" from="193253433#2" to="198876042#0"/>
  <flow id="car_193253433#2_193253427#0_000cad89" type="car" begin="0" end="3600" vehsPerHour="24.12" departLane="best" departPos="random" departSpeed="0" from="193253433#2" to="193253427#0"/>
  <flow id="motorcycle_193253433#2_198876043#0_000cad89" type="motorcycle" begin="0" end="3600" vehsPerHour="118.11" departLane="best" departPos="random" departSpeed="0" from="193253433#2" to="198876043#0"/>
  <flow id="motorcycle_193253433#2_28231434_000cad89" type="motorcycle" begin="0" end="3600" vehsPerHour="102.08" departLane="best" departPos="random" departSpeed="0" from="193253433#2" to="28231434"/>
  <flow id="motorcycle_193253433#2_23241821#0_000cad89" type="motorcycle" begin="0" end="3600" vehsPerHour="94.63" departLane="best" departPos="random" departSpeed="0" from="193253433#2" to="23241821#0"/>
  <flow id="motorcycle_193253433#2_198876042#0_000cad89" type="motorcycle" begin="0" end="3600" vehsPerHour="82.26" departLane="best" departPos="random" departSpeed="0" from="193253433#2" to="198876042#0"/>
  <flow id="motorcycle_193253433#2_193253427#0_000cad89" type="motorcycle" begin="0" end="3600" vehsPerHour="66.33" departLane="best" departPos="random" departSpeed="0" from="193253433#2" to="193253427#0"/>
  <flow id="car_198876045#1_28231434_000cad89" type="car" begin="0" end="3600" vehsPerHour="35.22" departLane="best" departPos="random" departSpeed="0" from="198876045#1" to="28231434"/>
  <flow id="car_198876045#1_23241821#0_000cad89" type="car" begin="0" end="3600" vehsPerHour="30.73" departLane="best" departPos="random" departSpeed="0" from="198876045#1" to="23241821#0"/>
  <flow id="car_198876045#1_198876042#0_000cad89" type="car" begin="0" end="3600" vehsPerHour="26.68" departLane="best" departPos="random" departSpeed="0" from="198876045#1" to="198876042#0"/>
  <flow id="car_198876045#1_193253427#0_000cad89" type="car" begin="0" end="3600" vehsPerHour="23.63" departLane="best" departPos="random" departSpeed="0" from="198876045#1" to="193253427#0"/>
  <flow id="car_198876045#1_198876043#2_000cad89" type="car" begin="0" end="3600" vehsPerHour="20.65" departLane="best" departPos="random" departSpeed="0" from="198876045#1" to="198876043#2"/>
  <flow id="motorcycle_198876045#1_28231434_000cad89" type="motorcycle" begin="0" end="3600" vehsPerHour="97.71" departLane="best" departPos="random" departSpeed="0" from="198876045#1" to="28231434"/>
  <flow id="motorcycle_198876045#1_23241821#0_000cad89" type="motorcycle" begin="0" end="3600" vehsPerHour="85.81" departLane="best" departPos="random" departSpeed="0" from="198876045#1" to="23241821#0"/>
  <flow id="motorcycle_198876045#1_198876042#0_000cad89" type="motorcycle" begin="0" end="3600" vehsPerHour="78.24" departLane="best" departPos="random" departSpeed="0" from="198876045#1" to="198876042#0"/>
  <flow id="motorcycle_198876045#1_193253427#0_000cad89" type="motorcycle" begin="0" end="3600" vehsPerHour="76.97" departLane="best" departPos="random" departSpeed="0" from="198876045#1" to="193253427#0"/>
  <flow id="motorcycle_198876045#1_198876043#2_000cad89" type="motorcycle" begin="0" end="3600" vehsPerHour="69.59" departLane="best" departPos="random" departSpeed="0" from="198876045#1" to="198876043#2"/>
  <flow id="car_-28231434_23241821#0_000cad89" type="car" begin="0" end="3600" vehsPerHour="24.14" departLane="best" departPos="random" departSpeed="0" from="-28231434" to="23241821#0"/>
  <flow id="car_-28231434_198876042#0_000cad89" type="car" begin="0" end="3600" vehsPerHour="19.44" departLane="best" departPos="random" departSpeed="0" from="-28231434" to="198876042#0"/>
  <flow id="car_-28231434_193253427#0_000cad89" type="car" begin="0" end="3600" vehsPerHour="17.65" departLane="best" departPos="random" departSpeed="0" from="-28231434" to="193253427#0"/>
  <flow id="car_-28231434_198876043#2_000cad89" type="car" begin="0" end="3600" vehsPerHour="17.50" departLane="best" departPos="random" departSpeed="0" from="-28231434" to="198876043#2"/>
  <flow id="car_-28231434_28231434_000cad89" type="car" begin="0" end="3600" vehsPerHour="14.09" departLane="best" departPos="random" departSpeed="0" from="-28231434" to="28231434"/>
  <flow id="motorcycle_-28231434_23241821#0_000cad89" type="motorcycle" begin="0" end="3600" vehsPerHour="70.04" departLane="best" departPos="random" departSpeed="0" from="-28231434" to="23241821#0"/>
  <flow id="motorcycle_-28231434_198876042#0_000cad89" type="motorcycle" begin="0" end="3600" vehsPerHour="60.34" departLane="best" departPos="random" departSpeed="0" from="-28231434" to="198876042#0"/>
  <flow id="motorcycle_-28231434_193253427#0_000cad89" type="motorcycle" begin="0" end="3600" vehsPerHour="52.76" departLane="best" departPos="random" departSpeed="0" from="-28231434" to="193253427#0"/>
  <flow id="motorcycle_-28231434_198876043#2_000cad89" type="motorcycle" begin="0" end="3600" vehsPerHour="45.22" departLane="best" departPos="random" departSpeed="0" from="-28231434" to="198876043#2"/>
  <flow id="motorcycle_-28231434_28231434_000cad89" type="motorcycle" begin="0" end="3600" vehsPerHour="40.79" departLane="best" departPos="random" departSpeed="0" from="-28231434" to="28231434"/>
  <flow id="car_-55029244#0_198876042#0_000cad89" type="car" begin="0" end="3600" vehsPerHour="25.95" departLane="best" departPos="random" departSpeed="0" from="-55029244#0" to="198876042#0"/>
  <flow id="car_-55029244#0_193253427#0_000cad89" type="car" begin="0" end="3600" vehsPerHour="23.75" departLane="best" departPos="random" departSpeed="0" from="-55029244#0" to="193253427#0"/>
  <flow id="car_-55029244#0_198876043#2_000cad89" type="car" begin="0" end="3600" vehsPerHour="20.15" departLane="best" departPos="random" departSpeed="0" from="-55029244#0" to="198876043#2"/>
  <flow id="car_-55029244#0_28231434_000cad89" type="car" begin="0" end="3600" vehsPerHour="16.92" departLane="best" departPos="random" departSpeed="0" from="-55029244#0" to="28231434"/>
  <flow id="car_-55029244#0_23241821#0_000cad89" type="car" begin="0" end="3600" vehsPerHour="13.47" departLane="best" departPos="random" departSpeed="0" from="-55029244#0" to="23241821#0"/>
  <flow id="motorcycle_-55029244#0_198876042#0_000cad89" type="motorcycle" begin="0" end="3600" vehsPerHour="77.04" departLane="best" departPos="random" departSpeed="0" from="-55029244#0" to="198876042#0"/>
  <flow id="motorcycle_-55029244#0_193253427#0_000cad89" type="motorcycle" begin="0" end="3600" vehsPerHour="66.88" departLane="best" departPos="random" departSpeed="0" from="-55029244#0" to="193253427#0"/>
  <flow id="motorcycle_-55029244#0_198876043#2_000cad89" type="motorcycle" begin="0" end="3600" vehsPerHour="61.77" departLane="best" departPos="random" departSpeed="0" from="-55029244#0" to="198876043#2"/>
  <flow id="motorcycle_-55029244#0_28231434_000cad89" type="motorcycle" begin="0" end="3600" vehsPerHour="55.63" departLane="best" departPos="random" departSpeed="0" from="-55029244#0" to="28231434"/>
  <flow id="motorcycle_-55029244#0_23241821#0_000cad89" type="motorcycle" begin="0" end="3600" vehsPerHour="47.73" departLane="best" departPos="random" departSpeed="0" from="-55029244#0" to="23241821#0"/>
  <flow id="car_34241530#0_198876042#0_000cad89" type="car" begin="0" end="3600" vehsPerHour="25.90" departLane="best" departPos="random" departSpeed="0" from="34241530#0" to="198876042#0"/>
  <flow id="car_34241530#0_193253427#0_000cad89" type="car" begin="0" end="3600" vehsPerHour="22.87" departLane="best" departPos="random" departSpeed="0" from="34241530#0" to="193253427#0"/>
  <flow id="car_34241530#0_198876043#2_000cad89" type="car" begin="0" end="3600" vehsPerHour="20.30" departLane="best" departPos="random" departSpeed="0" from="34241530#0" to="198876043#2"/>
  <flow id="car_34241530#0_28231434_000cad89" type="car" begin="0" end="3600" vehsPerHour="16.49" departLane="best" departPos="random" departSpeed="0" from="34241530#0" to="28231434"/>
  <flow id="car_34241530#0_23241821#0_000cad89" type="car" begin="0" end="3600" vehsPerHour="13.56" departLane="best" departPos="random" departSpeed="0" from="34241530#0" to="23241821#0"/>
  <flow id="motorcycle_34241530#0_198876042#0_000cad89" type="motorcycle" begin="0" end="3600" vehsPerHour="79.02" departLane="best" departPos="random" departSpeed="0" from="34241530#0" to="198876042#0"/>
  <flow id="motorcycle_34241530#0_193253427#0_000cad89" type="motorcycle" begin="0" end="3600" vehsPerHour="67.13" departLane="best" departPos="random" departSpeed="0" from="34241530#0" to="193253427#0"/>
  <flow id="motorcycle_34241530#0_198876043#2_000cad89" type="motorcycle" begin="0" end="3600" vehsPerHour="58.50" departLane="best" departPos="random" departSpeed="0" from="34241530#0" to="198876043#2"/>
  <flow id="motorcycle_34241530#0_28231434_000cad89" type="motorcycle" begin="0" end="3600" vehsPerHour="53.56" departLane="best" departPos="random" departSpeed="0" from="34241530#0" to="28231434"/>
  <flow id="motorcycle_34241530#0_23241821#0_000cad89" type="motorcycle" begin="0" end="3600" vehsPerHour="46.78" departLane="best" departPos="random" departSpeed="0" from="34241530#0" to="23241821#0"/>
  <flow id="truck_34241530#0_198876042#0_000cad89" type="truck" begin="0" end="3600" vehsPerHour="12.14" departLane="best" departPos="random" departSpeed="0" from="34241530#0" to="198876042#0"/>
</routes>
