<routes>
<vType id="car" vClass="passenger" accel="2.6" decel="4.5" sigma="0.5" length="5.0" maxSpeed="13.9"/>
<vType id="motorcycle" vClass="motorcycle" accel="3.0" decel="5.0" sigma="0.5" length="2.0" maxSpeed="14.0"/>
<vType id="truck" vClass="truck" accel="1.2" decel="3.5" sigma="0.5" length="12.0" maxSpeed="10.0"/>

  <flow id="car_222682222#1_193253427#0_0002d95d" type="car" begin="0" end="3600" vehsPerHour="61.28" departLane="best" departPos="random" departSpeed="0" from="222682222#1" to="193253427#0"/>
  <flow id="car_222682222#1_198876043#0_0002d95d" type="car" begin="0" end="3600" vehsPerHour="52.52" departLane="best" departPos="random" departSpeed="0" from="222682222#1" to="198876043#0"/>
  <flow id="car_222682222#1_28231434_0002d95d" type="car" begin="0" end="3600" vehsPerHour="50.58" departLane="best" departPos="random" departSpeed="0" from="222682222#1" to="28231434"/>
  <flow id="car_222682222#1_23241821#0_0002d95d" type="car" begin="0" end="3600" vehsPerHour="41.82" departLane="best" departPos="random" departSpeed="0" from="222682222#1" to="23241821#0"/>
  <flow id="car_222682222#1_198876042#0_0002d95d" type="car" begin="0" end="3600" vehsPerHour="34.26" departLane="best" departPos="random" departSpeed="0" from="222682222#1" to="198876042#0"/>
  <flow id="motorcycle_222682222#1_193253427#0_0002d95d" type="motorcycle" begin="0" end="3600" vehsPerHour="182.93" departLane="best" departPos="random" departSpeed="0" from="222682222#1" to="193253427#0"/>
  <flow id="motorcycle_222682222#1_198876043#0_0002d95d" type="motorcycle" begin="0" end="3600" vehsPerHour="160.53" departLane="best" departPos="random" departSpeed="0" from="222682222#1" to="198876043#0"/>
  <flow id="motorcycle_222682222#1_28231434_0002d95d" type="motorcycle" begin="0" end="3600" vehsPerHour="139.30" departLane="best" departPos="random" departSpeed="0" from="222682222#1" to="28231434"/>
  <flow id="motorcycle_222682222#1_23241821#0_0002d95d" type="motorcycle" begin="0" end="3600" vehsPerHour="112.52" departLane="best" departPos="random" departSpeed="0" from="222682222#1" to="23241821#0"/>
  <flow id="motorcycle_222682222#1_198876042#0_0002d95d" type="motorcycle" begin="0" end="3600" vehsPerHour="100.45" departLane="best" departPos="random" departSpeed="0" from="222682222#1" to="198876042#0"/>
  <flow id="car_193253433#2_198876043#0_0002d95d" type="car" begin="0" end="3600" vehsPerHour="39.77" departLane="best" departPos="random" departSpeed="0" from="193253433#2" to="198876043#0"/>
  <flow id="car_193253433#2_28231434_0002d95d" type="car" begin="0" end="3600" vehsPerHour="35.03" departLane="best" departPos="random" departSpeed="0" from="193253433#2" to="28231434"/>
  <flow id="car_193253433#2_23241821#0_0002d95d" type="car" begin="0" end="3600" vehsPerHour="33.45" departLane="best" departPos="random" departSpeed="0" from="193253433#2" to="23241821#0"/>
  <flow id="car_193253433#2_198876042#0_0002d95d" type="car" begin="0" end="3600" vehsPerHour="26.11" departLane="best" departPos="random" departSpeed="0" from="193253433#2" to="198876042#0"/>
  <flow id="car_193253433#2_193253427#0_0002d95d" type="car" begin="0" end="3600" vehsPerHour="22.95" departLane="best" departPos="random" departSpeed="0" from="193253433#2" to="193253427#0"/>
  <flow id="motorcycle_193253433#2_198876043#0_0002d95d" type="motorcycle" begin="0" end="3600" vehsPerHour="119.90" departLane="best" departPos="random" departSpeed="0" from="193253433#2" to="198876043#0"/>
  <flow id="motorcycle_193253433#2_28231434_0002d95d" type="motorcycle" begin="0" end="3600" vehsPerHour="104.90" departLane="best" departPos="random" departSpeed="0" from="193253433#2" to="28231434"/>
  <flow id="motorcycle_193253433#2_23241821#0_0002d95d" type="motorcycle" begin="0" end="3600" vehsPerHour="95.34" departLane="best" departPos="random" departSpeed="0" from="193253433#2" to="23241821#0"/>
  <flow id="motorcycle_193253433#2_198876042#0_0002d95d" type="motorcycle" begin="0" end="3600" vehsPerHour="77.92" departLane="best" departPos="random" departSpeed="0" from="193253433#2" to="198876042#0"/>
  <flow id="motorcycle_193253433#2_193253427#0_0002d95d" type="motorcycle" begin="0" end="3600" vehsPerHour="65.88" departLane="best" departPos="random" departSpeed="0" from="193253433#2" to="193253427#0"/>
  <flow id="car_198876045#1_28231434_0002d95d" type="car" begin="0" end="3600" vehsPerHour="34.11" departLane="best" departPos="random" departSpeed="0" from="198876045#1" to="28231434"/>
  <flow id="car_198876045#1_23241821#0_0002d95d" type="car" begin="0" end="3600" vehsPerHour="29.22" departLane="best" departPos="random" departSpeed="0" from="198876045#1" to="23241821#0"/>
  <flow id="car_198876045#1_198876042#0_0002d95d" type="car" begin="0" end="3600" vehsPerHour="27.15" departLane="best" departPos="random" departSpeed="0" from="198876045#1" to="198876042#0"/>
  <flow id="car_198876045#1_193253427#0_0002d95d" type="car" begin="0" end="3600" vehsPerHour="23.44" departLane="best" departPos="random" departSpeed="0" from="198876045#1" to="193253427#0"/>
  <flow id="car_198876045#1_198876043#2_0002d95d" type="car" begin="0" end="3600" vehsPerHour="20.34" departLane="best" departPos="random" departSpeed="0" from="198876045#1" to="198876043#2"/>
  <flow id="motorcycle_198876045#1_28231434_0002d95d" type="motorcycle" begin="0" end="3600" vehsPerHour="98.12" departLane="best" departPos="random" departSpeed="0" from="198876045#1" to="28231434"/>
  <flow id="motorcycle_198876045#1_23241821#0_0002d95d" type="motorcycle" begin="0" end="3600" vehsPerHour="88.81" departLane="best" departPos="random" departSpeed="0" from="198876045#1" to="23241821#0"/>
  <flow id="motorcycle_198876045#1_198876042#0_0002d95d" type="motorcycle" begin="0" end="3600" vehsPerHour="79.95" departLane="best" departPos="random" departSpeed="0" from="198876045#1" to="198876042#0"/>
  <flow id="motorcycle_198876045#1_193253427#0_0002d95d" type="motorcycle" begin="0" end="3600" vehsPerHour="72.07" departLane="best" departPos="random" departSpeed="0" from="198876045#1" to="193253427#0"/>
  <flow id="motorcycle_198876045#1_198876043#2_0002d95d" type="motorcycle" begin="0" end="3600" vehsPerHour="64.73" departLane="best" departPos="random" departSpeed="0" from="198876045#1" to="198876043#2"/>
  <flow id="car_-28231434_23241821#0_0002d95d" type="car" begin="0" end="3600" vehsPerHour="22.71" departLane="best" departPos="random" departSpeed="0" from="-28231434" to="23241821#0"/>
  <flow id="car_-28231434_198876042#0_0002d95d" type="car" begin="0" end="3600" vehsPerHour="19.63" departLane="best" departPos="random" departSpeed="0" from="-28231434" to="198876042#0"/>
  <flow id="car_-28231434_193253427#0_0002d95d" type="car" begin="0" end="3600" vehsPerHour="17.02" departLane="best" departPos="random" departSpeed="0" from="-28231434" to="193253427#0"/>
  <flow id="car_-28231434_198876043#2_0002d95d" type="car" begin="0" end="3600" vehsPerHour="16.31" departLane="best" departPos="random" departSpeed="0" from="-28231434" to="198876043#2"/>
  <flow id="car_-28231434_28231434_0002d95d" type="car" begin="0" end="3600" vehsPerHour="13.42" departLane="best" departPos="random" departSpeed="0" from="-28231434" to="28231434"/>
  <flow id="motorcycle_-28231434_23241821#0_0002d95d" type="motorcycle" begin="0" end="3600" vehsPerHour="66.25" departLane="best" departPos="random" departSpeed="0" from="-28231434" to="23241821#0"/>
  <flow id="motorcycle_-28231434_198876042#0_0002d95d" type="motorcycle" begin="0" end="3600" vehsPerHour="63.53" departLane="best" departPos="random" departSpeed="0" from="-28231434" to="198876042#0"/>
  <flow id="motorcycle_-28231434_193253427#0_0002d95d" type="motorcycle" begin="0" end="3600" vehsPerHour="56.17" departLane="best" departPos="random" departSpeed="0" from="-28231434" to="193253427#0"/>
  <flow id="motorcycle_-28231434_198876043#2_0002d95d" type="motorcycle" begin="0" end="3600" vehsPerHour="46.34" departLane="best" departPos="random" departSpeed="0" from="-28231434" to="198876043#2"/>
  <flow id="motorcycle_-28231434_28231434_0002d95d" type="motorcycle" begin="0" end="3600" vehsPerHour="39.88" departLane="best" departPos="random" departSpeed="0" from="-28231434" to="28231434"/>
  <flow id="car_-55029244#0_198876042#0_0002d95d" type="car" begin="0" end="3600" vehsPerHour="26.55" departLane="best" departPos="random" departSpeed="0" from="-55029244#0" to="198876042#0"/>
  <flow id="car_-55029244#0_193253427#0_0002d95d" type="car" begin="0" end="3600" vehsPerHour="24.71" departLane="best" departPos="random" departSpeed="0" from="-55029244#0" to="193253427#0"/>
  <flow id="car_-55029244#0_198876043#2_0002d95d" type="car" begin="0" end="3600" vehsPerHour="20.42" departLane="best" departPos="random" departSpeed="0" from="-55029244#0" to="198876043#2"/>
  <flow id="car_-55029244#0_28231434_0002d95d" type="car" begin="0" end="3600" vehsPerHour="17.42" departLane="best" departPos="random" departSpeed="0" from="-55029244#0" to="28231434"/>
  <flow id="car_-55029244#0_23241821#0_0002d95d" type="car" begin="0" end="3600" vehsPerHour="13.24" departLane="best" departPos="random" departSpeed="0" from="-55029244#0" to="23241821#0"/>
  <flow id="motorcycle_-55029244#0_198876042#0_0002d95d" type="motorcycle" begin="0" end="3600" vehsPerHour="84.79" departLane="best" departPos="random" departSpeed="0" from="-55029244#0" to="198876042#0"/>
  <flow id="motorcycle_-55029244#0_193253427#0_0002d95d" type="motorcycle" begin="0" end="3600" vehsPerHour="64.51" departLane="best" departPos="random" departSpeed="0" from="-55029244#0" to="193253427#0"/>
  <flow id="motorcycle_-55029244#0_198876043#2_0002d95d" type="motorcycle" begin="0" end="3600" vehsPerHour="62.85" departLane="best" departPos="random" departSpeed="0" from="-55029244#0" to="198876043#2"/>
  <flow id="motorcycle_-55029244#0_28231434_0002d95d" type="motorcycle" begin="0" end="3600" vehsPerHour="52.99" departLane="best" departPos="random" departSpeed="0" from="-55029244#0" to="28231434"/>
  <flow id="motorcycle_-55029244#0_23241821#0_0002d95d" type="motorcycle" begin="0" end="3600" vehsPerHour="49.52" departLane="best" departPos="random" departSpeed="0" from="-55029244#0" to="23241821#0"/>
  <flow id="car_34241530#0_198876042#0_0002d95d" type="car" begin="0" end="3600" vehsPerHour="26.52" departLane="best" departPos="random" departSpeed="0" from="34241530#0" to="198876042#0"/>
  <flow id="car_34241530#0_193253427#0_0002d95d" type="car" begin="0" end="3600" vehsPerHour="23.84" departLane="best" departPos="random" departSpeed="0" from="34241530#0" to="193253427#0"/>
  <flow id="car_34241530#0_198876043#2_0002d95d" type="car" begin="0" end="3600" vehsPerHour="20.81" departLane="best" departPos="random" departSpeed="0" from="34241530#0" to="198876043#2"/>
  <flow id="car_34241530#0_28231434_0002d95d" type="car" begin="0" end="3600" vehsPerHour="17.57" departLane="best" departPos="random" departSpeed="0" from="34241530#0" to="28231434"/>
  <flow id="car_34241530#0_23241821#0_0002d95d" type="car" begin="0" end="3600" vehsPerHour="13.05" departLane="best" departPos="random" departSpeed="0" from="34241530#0" to="23241821#0"/>
  <flow id="motorcycle_34241530#0_198876042#0_0002d95d" type="motorcycle" begin="0" end="3600" vehsPerHour="82.35" departLane="best" departPos="random" departSpeed="0" from="34241530#0" to="198876042#0"/>
  <flow id="motorcycle_34241530#0_193253427#0_0002d95d" type="motorcycle" begin="0" end="3600" vehsPerHour="69.62" departLane="best" departPos="random" departSpeed="0" from="34241530#0" to="193253427#0"/>
  <flow id="motorcycle_34241530#0_198876043#2_0002d95d" type="motorcycle" begin="0" end="3600" vehsPerHour="58.34" departLane="best" departPos="random" departSpeed="0" from="34241530#0" to="198876043#2"/>
  <flow id="motorcycle_34241530#0_28231434_0002d95d" type="motorcycle" begin="0" end="3600" vehsPerHour="55.78" departLane="best" departPos="random" departSpeed="0" from="34241530#0" to="28231434"/>
  <flow id="motorcycle_34241530#0_23241821#0_0002d95d" type="motorcycle" begin="0" end="3600" vehsPerHour="44.86" departLane="best" departPos="random" departSpeed="0" from="34241530#0" to="23241821#0"/>
  <flow id="truck_34241530#0_198876042#0_0002d95d" type="truck" begin="0" end="3600" vehsPerHour="11.53" departLane="best" departPos="random" departSpeed="0" from="34241530#0" to="198876042#0"/>
</routes>
