<routes>
<vType id="car" vClass="passenger" accel="2.6" decel="4.5" sigma="0.5" length="5.0" maxSpeed="13.9"/>
<vType id="motorcycle" vClass="motorcycle" accel="3.0" decel="5.0" sigma="0.5" length="2.0" maxSpeed="14.0"/>
<vType id="truck" vClass="truck" accel="1.2" decel="3.5" sigma="0.5" length="12.0" maxSpeed="10.0"/>

  <flow id="car_222682222#1_193253427#0_0005fab6" type="car" begin="0" end="3600" vehsPerHour="63.19" departLane="best" departPos="random" departSpeed="0" from="222682222#1" to="193253427#0"/>
  <flow id="car_222682222#1_198876043#0_0005fab6" type="car" begin="0" end="3600" vehsPerHour="51.97" departLane="best" departPos="random" departSpeed="0" from="222682222#1" to="198876043#0"/>
  <flow id="car_222682222#1_28231434_0005fab6" type="car" begin="0" end="3600" vehsPerHour="49.16" departLane="best" departPos="random" departSpeed="0" from="222682222#1" to="28231434"/>
  <flow id="car_222682222#1_23241821#0_0005fab6" type="car" begin="0" end="3600" vehsPerHour="41.46" departLane="best" departPos="random" departSpeed="0" from="222682222#1" to="23241821#0"/>
  <flow id="car_222682222#1_198876042#0_0005fab6" type="car" begin="0" end="3600" vehsPerHour="33.13" departLane="best" departPos="random" departSpeed="0" from="222682222#1" to="198876042#0"/>
  <flow id="motorcycle_222682222#1_193253427#0_0005fab6" type="motorcycle" begin="0" end="3600" vehsPerHour="178.57" departLane="best" departPos="random" departSpeed="0" from="222682222#1" to="193253427#0"/>
  <flow id="motorcycle_222682222#1_198876043#0_0005fab6" type="motorcycle" begin="0" end="3600" vehsPerHour="153.95" departLane="best" departPos="random" departSpeed="0" from="222682222#1" to="198876043#0"/>
  <flow id="motorcycle_222682222#1_28231434_0005fab6" type="motorcycle" begin="0" end="3600" vehsPerHour="147.83" departLane="best" departPos="random" departSpeed="0" from="222682222#1" to="28231434"/>
  <flow id="motorcycle_222682222#1_23241821#0_0005fab6" type="motorcycle" begin="0" end="3600" vehsPerHour="111.08" departLane="best" departPos="random" departSpeed="0" from="222682222#1" to="23241821#0"/>
  <flow id="motorcycle_222682222#1_198876042#0_0005fab6" type="motorcycle" begin="0" end="3600" vehsPerHour="96.67" departLane="best" departPos="random" departSpeed="0" from="222682222#1" to="198876042#0"/>
  <flow id="car_193253433#2_198876043#0_0005fab6" type="car" begin="0" end="3600" vehsPerHour="40.76" departLane="best" departPos="random" departSpeed="0" from="193253433#2" to="198876043#0"/>
  <flow id="car_193253433#2_28231434_0005fab6" type="car" begin="0" end="3600" vehsPerHour="33.29" departLane="best" departPos="random" departSpeed="0" from="193253433#2" to="28231434"/>
  <flow id="car_193253433#2_23241821#0_0005fab6" type="car" begin="0" end="3600" vehsPerHour="33.86" departLane="best" departPos="random" departSpeed="0" from="193253433#2" to="23241821#0"/>
  <flow id="car_193253433#2_198876042#0_0005fab6" type="car" begin="0" end="3600" vehsPerHour="27.60" departLane="best" departPos="random" departSpeed="0" from="193253433#2" to="198876042#0"/>
  <flow id="car_193253433#2_193253427#0_0005fab6" type="car" begin="0" end="3600" vehsPerHour="23.13" departLane="best" departPos="random" departSpeed="0" from="193253433#2" to="193253427#0"/>
  <flow id="motorcycle_193253433#2_198876043#0_0005fab6" type="motorcycle" begin="0" end="3600" vehsPerHour="109.69" departLane="best" departPos="random" departSpeed="0" from="193253433#2" to="198876043#0"/>
  <flow id="motorcycle_193253433#2_28231434_0005fab6" type="motorcycle" begin="0" end="3600" vehsPerHour="100.96" departLane="best" departPos="random" departSpeed="0" from="193253433#2" to="28231434"/>
  <flow id="motorcycle_193253433#2_23241821#0_0005fab6" type="motorcycle" begin="0" end="3600" vehsPerHour="91.63" departLane="best" departPos="random" departSpeed="0" from="193253433#2" to="23241821#0"/>
  <flow id="motorcycle_193253433#2_198876042#0_0005fab6" type="motorcycle" begin="0" end="3600" vehsPerHour="81.52" departLane="best" departPos="random" departSpeed="0" from="193253433#2" to="198876042#0"/>
  <flow id="motorcycle_193253433#2_193253427#0_0005fab6" type="motorcycle" begin="0" end="3600" vehsPerHour="64.14" departLane="best" departPos="random" departSpeed="0" from="193253433#2" to="193253427#0"/>
  <flow id="car_198876045#1_28231434_0005fab6" type="car" begin="0" end="3600" vehsPerHour="34.84" departLane="best" departPos="random" departSpeed="0" from="198876045#1" to="28231434"/>
  <flow id="car_198876045#1_23241821#0_0005fab6" type="car" begin="0" end="3600" vehsPerHour="31.18" departLane="best" departPos="random" departSpeed="0" from="198876045#1" to="23241821#0"/>
  <flow id="car_198876045#1_198876042#0_0005fab6" type="car" begin="0" end="3600" vehsPerHour="28.28" departLane="best" departPos="random" departSpeed="0" from="198876045#1" to="198876042#0"/>
  <flow id="car_198876045#1_193253427#0_0005fab6" type="car" begin="0" end="3600" vehsPerHour="23.18" departLane="best" departPos="random" departSpeed="0" from="198876045#1" to="193253427#0"/>
  <flow id="car_198876045#1_198876043#2_0005fab6" type="car" begin="0" end="3600" vehsPerHour="20.62" departLane="best" departPos="random" departSpeed="0" from="198876045#1" to="198876043#2"/>
  <flow id="motorcycle_198876045#1_28231434_0005fab6" type="motorcycle" begin="0" end="3600" vehsPerHour="104.10" departLane="best" departPos="random" departSpeed="0" from="198876045#1" to="28231434"/>
  <flow id="motorcycle_198876045#1_23241821#0_0005fab6" type="motorcycle" begin="0" end="3600" vehsPerHour="87.56" departLane="best" departPos="random" departSpeed="0" from="198876045#1" to="23241821#0"/>
  <flow id="motorcycle_198876045#1_198876042#0_0005fab6" type="motorcycle" begin="0" end="3600" vehsPerHour="79.42" departLane="best" departPos="random" departSpeed="0" from="198876045#1" to="198876042#0"/>
  <flow id="motorcycle_198876045#1_193253427#0_0005fab6" type="motorcycle" begin="0" end="3600" vehsPerHour="74.07" departLane="best" departPos="random" departSpeed="0" from="198876045#1" to="193253427#0"/>
  <flow id="motorcycle_198876045#1_198876043#2_0005fab6" type="motorcycle" begin="0" end="3600" vehsPerHour="67.68" departLane="best" departPos="random" departSpeed="0" from="198876045#1" to="198876043#2"/>
  <flow id="car_-28231434_23241821#0_0005fab6" type="car" begin="0" end="3600" vehsPerHour="24.19" departLane="best" departPos="random" departSpeed="0" from="-28231434" to="23241821#0"/>
  <flow id="car_-28231434_198876042#0_0005fab6" type="car" begin="0" end="3600" vehsPerHour="21.22" departLane="best" departPos="random" departSpeed="0" from="-28231434" to="198876042#0"/>
  <flow id="car_-28231434_193253427#0_0005fab6" type="car" begin="0" end="3600" vehsPerHour="16.28" departLane="best" departPos="random" departSpeed="0" from="-28231434" to="193253427#0"/>
  <flow id="car_-28231434_198876043#2_0005fab6" type="car" begin="0" end="3600" vehsPerHour="16.55" departLane="best" departPos="random" departSpeed="0" from="-28231434" to="198876043#2"/>
  <flow id="car_-28231434_28231434_0005fab6" type="car" begin="0" end="3600" vehsPerHour="13.27" departLane="best" departPos="random" departSpeed="0" from="-28231434" to="28231434"/>
  <flow id="motorcycle_-28231434_23241821#0_0005fab6" type="motorcycle" begin="0" end="3600" vehsPerHour="66.20" departLane="best" departPos="random" departSpeed="0" from="-28231434" to="23241821#0"/>
  <flow id="motorcycle_-28231434_198876042#0_0005fab6" type="motorcycle" begin="0" end="3600" vehsPerHour="59.46" departLane="best" departPos="random" departSpeed="0" from="-28231434" to="198876042#0"/>
  <flow id="motorcycle_-28231434_193253427#0_0005fab6" type="motorcycle" begin="0" end="3600" vehsPerHour="55.70" departLane="best" departPos="random" departSpeed="0" from="-28231434" to="193253427#0"/>
  <flow id="motorcycle_-28231434_198876043#2_0005fab6" type="motorcycle" begin="0" end="3600" vehsPerHour="45.68" departLane="best" departPos="random" departSpeed="0" from="-28231434" to="198876043#2"/>
  <flow id="motorcycle_-28231434_28231434_0005fab6" type="motorcycle" begin="0" end="3600" vehsPerHour="41.72" departLane="best" departPos="random" departSpeed="0" from="-28231434" to="28231434"/>
  <flow id="car_-55029244#0_198876042#0_0005fab6" type="car" begin="0" end="3600" vehsPerHour="28.29" departLane="best" departPos="random" departSpeed="0" from="-55029244#0" to="198876042#0"/>
  <flow id="car_-55029244#0_193253427#0_0005fab6" type="car" begin="0" end="3600" vehsPerHour="23.15" departLane="best" departPos="random" departSpeed="0" from="-55029244#0" to="193253427#0"/>
  <flow id="car_-55029244#0_198876043#2_0005fab6" type="car" begin="0" end="3600" vehsPerHour="20.32" departLane="best" departPos="random" departSpeed="0" from="-55029244#0" to="198876043#2"/>
  <flow id="car_-55029244#0_28231434_0005fab6" type="car" begin="0" end="3600" vehsPerHour="17.23" departLane="best" departPos="random" departSpeed="0" from="-55029244#0" to="28231434"/>
  <flow id="car_-55029244#0_23241821#0_0005fab6" type="car" begin="0" end="3600" vehsPerHour="13.10" departLane="best" departPos="random" departSpeed="0" from="-55029244#0" to="23241821#0"/>
  <flow id="motorcycle_-55029244#0_198876042#0_0005fab6" type="motorcycle" begin="0" end="3600" vehsPerHour="84.53" departLane="best" departPos="random" departSpeed="0" from="-55029244#0" to="198876042#0"/>
  <flow id="motorcycle_-55029244#0_193253427#0_0005fab6" type="motorcycle" begin="0" end="3600" vehsPerHour="70.55" departLane="best" departPos="random" departSpeed="0" from="-55029244#0" to="193253427#0"/>
  <flow id="motorcycle_-55029244#0_198876043#2_0005fab6" type="motorcycle" begin="0" end="3600" vehsPerHour="62.62" departLane="best" departPos="random" departSpeed="0" from="-55029244#0" to="198876043#2"/>
  <flow id="motorcycle_-55029244#0_28231434_0005fab6" type="motorcycle" begin="0" end="3600" vehsPerHour="55.88" departLane="best" departPos="random" departSpeed="0" from="-55029244#0" to="28231434"/>
  <flow id="motorcycle_-55029244#0_23241821#0_0005fab6" type="motorcycle" begin="0" end="3600" vehsPerHour="47.90" departLane="best" departPos="random" departSpeed="0" from="-55029244#0" to="23241821#0"/>
  <flow id="car_34241530#0_198876042#0_0005fab6" type="car" begin="0" end="3600" vehsPerHour="26.14" departLane="best" departPos="random" departSpeed="0" from="34241530#0" to="198876042#0"/>
  <flow id="car_34241530#0_193253427#0_0005fab6" type="car" begin="0" end="3600" vehsPerHour="23.18" departLane="best" departPos="random" departSpeed="0" from="34241530#0" to="193253427#0"/>
  <flow id="car_34241530#0_198876043#2_0005fab6" type="car" begin="0" end="3600" vehsPerHour="20.45" departLane="best" departPos="random" departSpeed="0" from="34241530#0" to="198876043#2"/>
  <flow id="car_34241530#0_28231434_0005fab6" type="car" begin="0" end="3600" vehsPerHour="17.03" departLane="best" departPos="random" departSpeed="0" from="34241530#0" to="28231434"/>
  <flow id="car_34241530#0_23241821#0_0005fab6" type="car" begin="0" end="3600" vehsPerHour="13.46" departLane="best" departPos="random" departSpeed="0" from="34241530#0" to="23241821#0"/>
  <flow id="motorcycle_34241530#0_198876042#0_0005fab6" type="motorcycle" begin="0" end="3600" vehsPerHour="77.47" departLane="best" departPos="random" departSpeed="0" from="34241530#0" to="198876042#0"/>
  <flow id="motorcycle_34241530#0_193253427#0_0005fab6" type="motorcycle" begin="0" end="3600" vehsPerHour="64.66" departLane="best" departPos="random" departSpeed="0" from="34241530#0" to="193253427#0"/>
  <flow id="motorcycle_34241530#0_198876043#2_0005fab6" type="motorcycle" begin="0" end="3600" vehsPerHour="61.44" departLane="best" departPos="random" departSpeed="0" from="34241530#0" to="198876043#2"/>
  <flow id="motorcycle_34241530#0_28231434_0005fab6" type="motorcycle" begin="0" end="3600" vehsPerHour="51.76" departLane="best" departPos="random" departSpeed="0" from="34241530#0" to="28231434"/>
  <flow id="motorcycle_34241530#0_23241821#0_0005fab6" type="motorcycle" begin="0" end="3600" vehsPerHour="45.76" departLane="best" departPos="random" departSpeed="0" from="34241530#0" to="23241821#0"/>
  <flow id="truck_34241530#0_198876042#0_0005fab6" type="truck" begin="0" end="3600" vehsPerHour="11.47" departLane="best" departPos="random" departSpeed="0" from="34241530#0" to="198876042#0"/>
</routes>
