<routes>
<vType id="car" vClass="passenger" accel="2.6" decel="4.5" sigma="0.5" length="5.0" maxSpeed="13.9"/>
<vType id="motorcycle" vClass="motorcycle" accel="3.0" decel="5.0" sigma="0.5" length="2.0" maxSpeed="14.0"/>
<vType id="truck" vClass="truck" accel="1.2" decel="3.5" sigma="0.5" length="12.0" maxSpeed="10.0"/>

  <flow id="car_222682222#1_193253427#0_00025f7e" type="car" begin="0" end="3600" vehsPerHour="58.25" departLane="best" departPos="random" departSpeed="0" from="222682222#1" to="193253427#0"/>
  <flow id="car_222682222#1_198876043#0_00025f7e" type="car" begin="0" end="3600" vehsPerHour="49.24" departLane="best" departPos="random" departSpeed="0" from="222682222#1" to="198876043#0"/>
  <flow id="car_222682222#1_28231434_00025f7e" type="car" begin="0" end="3600" vehsPerHour="51.50" departLane="best" departPos="random" departSpeed="0" from="222682222#1" to="28231434"/>
  <flow id="car_222682222#1_23241821#0_00025f7e" type="car" begin="0" end="3600" vehsPerHour="42.03" departLane="best" departPos="random" departSpeed="0" from="222682222#1" to="23241821#0"/>
  <flow id="car_222682222#1_198876042#0_00025f7e" type="car" begin="0" end="3600" vehsPerHour="32.50" departLane="best" departPos="random" departSpeed="0" from="222682222#1" to="198876042#0"/>
  <flow id="motorcycle_222682222#1_193253427#0_00025f7e" type="motorcycle" begin="0" end="3600" vehsPerHour="172.70" departLane="best" departPos="random" departSpeed="0" from="222682222#1" to="193253427#0"/>
  <flow id="motorcycle_222682222#1_198876043#0_00025f7e" type="motorcycle" begin="0" end="3600" vehsPerHour="157.41" departLane="best" departPos="random" departSpeed="0" from="222682222#1" to="198876043#0"/>
  <flow id="motorcycle_222682222#1_28231434_00025f7e" type="motorcycle" begin="0" end="3600" vehsPerHour="135.11" departLane="best" departPos="random" departSpeed="0" from="222682222#1" to="28231434"/>
  <flow id="motorcycle_222682222#1_23241821#0_00025f7e" type="motorcycle" begin="0" end="3600" vehsPerHour="114.49" departLane="best" departPos="random" departSpeed="0" from="222682222#1" to="23241821#0"/>
  <flow id="motorcycle_222682222#1_198876042#0_00025f7e" type="motorcycle" begin="0" end="3600" vehsPerHour="103.83" departLane="best" departPos="random" departSpeed="0" from="222682222#1" to="198876042#0"/>
  <flow id="car_193253433#2_198876043#0_00025f7e" type="car" begin="0" end="3600" vehsPerHour="38.66" departLane="best" departPos="random" departSpeed="0" from="193253433#2" to="198876043#0"/>
  <flow id="car_193253433#2_28231434_00025f7e" type="car" begin="0" end="3600" vehsPerHour="34.74" departLane="best" departPos="random" departSpeed="0" from="193253433#2" to="28231434"/>
  <flow id="car_193253433#2_23241821#0_00025f7e" type="car" begin="0" end="3600" vehsPerHour="34.39" departLane="best" departPos="random" departSpeed="0" from="193253433#2" to="23241821#0"/>
  <flow id="car_193253433#2_198876042#0_00025f7e" type="car" begin="0" end="3600" vehsPerHour="25.78" departLane="best" departPos="random" departSpeed="0" from="193253433#2" to="198876042#0"/>
  <flow id="car_193253433#2_193253427#0_00025f7e" type="car" begin="0" end="3600" vehsPerHour="22.67" departLane="best" departPos="random" departSpeed="0" from="193253433#2" to="193253427#0"/>
  <flow id="motorcycle_193253433#2_198876043#0_00025f7e" type="motorcycle" begin="0" end="3600" vehsPerHour="109.77" departLane="best" departPos="random" departSpeed="0" from="193253433#2" to="198876043#0"/>
  <flow id="motorcycle_193253433#2_28231434_00025f7e" type="motorcycle" begin="0" end="3600" vehsPerHour="97.53" departLane="best" departPos="random" departSpeed="0" from="193253433#2" to="28231434"/>
  <flow id="motorcycle_193253433#2_23241821#0_00025f7e" type="motorcycle" begin="0" end="3600" vehsPerHour="94.61" departLane="best" departPos="random" departSpeed="0" from="193253433#2" to="23241821#0"/>
  <flow id="motorcycle_193253433#2_198876042#0_00025f7e" type="motorcycle" begin="0" end="3600" vehsPerHour="80.87" departLane="best" departPos="random" departSpeed="0" from="193253433#2" to="198876042#0"/>
  <flow id="motorcycle_193253433#2_193253427#0_00025f7e" type="motorcycle" begin="0" end="3600" vehsPerHour="69.94" departLane="best" departPos="random" departSpeed="0" from="193253433#2" to="193253427#0"/>
  <flow id="car_198876045#1_28231434_00025f7e" type="car" begin="0" end="3600" vehsPerHour="33.20" departLane="best" departPos="random" departSpeed="0" from="198876045#1" to="28231434"/>
  <flow id="car_198876045#1_23241821#0_00025f7e" type="car" begin="0" end="3600" vehsPerHour="29.93" departLane="best" departPos="random" departSpeed="0" from="198876045#1" to="23241821#0"/>
  <flow id="car_198876045#1_198876042#0_00025f7e" type="car" begin="0" end="3600" vehsPerHour="27.08" departLane="best" departPos="random" departSpeed="0" from="198876045#1" to="198876042#0"/>
  <flow id="car_198876045#1_193253427#0_00025f7e" type="car" begin="0" end="3600" vehsPerHour="23.97" departLane="best" departPos="random" departSpeed="0" from="198876045#1" to="193253427#0"/>
  <flow id="car_198876045#1_198876043#2_00025f7e" type="car" begin="0" end="3600" vehsPerHour="19.90" departLane="best" departPos="random" departSpeed="0" from="198876045#1" to="198876043#2"/>
  <flow id="motorcycle_198876045#1_28231434_00025f7e" type="motorcycle" begin="0" end="3600" vehsPerHour="99.47" departLane="best" departPos="random" departSpeed="0" from="198876045#1" to="28231434"/>
  <flow id="motorcycle_198876045#1_23241821#0_00025f7e" type="motorcycle" begin="0" end="3600" vehsPerHour="83.56" departLane="best" departPos="random" departSpeed="0" from="198876045#1" to="23241821#0"/>
  <flow id="motorcycle_198876045#1_198876042#0_00025f7e" type="motorcycle" begin="0" end="3600" vehsPerHour="77.25" departLane="best" departPos="random" departSpeed="0" from="198876045#1" to="198876042#0"/>
  <flow id="motorcycle_198876045#1_193253427#0_00025f7e" type="motorcycle" begin="0" end="3600" vehsPerHour="71.62" departLane="best" departPos="random" departSpeed="0" from="198876045#1" to="193253427#0"/>
  <flow id="motorcycle_198876045#1_198876043#2_00025f7e" type="motorcycle" begin="0" end="3600" vehsPerHour="68.56" departLane="best" departPos="random" departSpeed="0" from="198876045#1" to="198876043#2"/>
  <flow id="car_-28231434_23241821#0_00025f7e" type="car" begin="0" end="3600" vehsPerHour="23.14" departLane="best" departPos="random" departSpeed="0" from="-28231434" to="23241821#0"/>
  <flow id="car_-28231434_198876042#0_00025f7e" type="car" begin="0" end="3600" vehsPerHour="19.57" departLane="best" departPos="random" departSpeed="0" from="-28231434" to="198876042#0"/>
  <flow id="car_-28231434_193253427#0_00025f7e" type="car" begin="0" end="3600" vehsPerHour="16.79" departLane="best" departPos="random" departSpeed="0" from="-28231434" to="193253427#0"/>
  <flow id="car_-28231434_198876043#2_00025f7e" type="car" begin="0" end="3600" vehsPerHour="16.18" departLane="best" departPos="random" departSpeed="0" from="-28231434" to="198876043#2"/>
  <flow id="car_-28231434_28231434_00025f7e" type="car" begin="0" end="3600" vehsPerHour="12.82" departLane="best" departPos="random" departSpeed="0" from="-28231434" to="28231434"/>
  <flow id="motorcycle_-28231434_23241821#0_00025f7e" type="motorcycle" begin="0" end="3600" vehsPerHour="64.12" departLane="best" departPos="random" departSpeed="0" from="-28231434" to="23241821#0"/>
  <flow id="motorcycle_-28231434_198876042#0_00025f7e" type="motorcycle" begin="0" end="3600" vehsPerHour="59.23" departLane="best" departPos="random" departSpeed="0" from="-28231434" to="198876042#0"/>
  <flow id="motorcycle_-28231434_193253427#0_00025f7e" type="motorcycle" begin="0" end="3600" vehsPerHour="52.64" departLane="best" departPos="random" departSpeed="0" from="-28231434" to="193253427#0"/>
  <flow id="motorcycle_-28231434_198876043#2_00025f7e" type="motorcycle" begin="0" end="3600" vehsPerHour="48.87" departLane="best" departPos="random" departSpeed="0" from="-28231434" to="198876043#2"/>
  <flow id="motorcycle_-28231434_28231434_00025f7e" type="motorcycle" begin="0" end="3600" vehsPerHour="42.36" departLane="best" departPos="random" departSpeed="0" from="-28231434" to="28231434"/>
  <flow id="car_-55029244#0_198876042#0_00025f7e" type="car" begin="0" end="3600" vehsPerHour="26.33" departLane="best" departPos="random" departSpeed="0" from="-55029244#0" to="198876042#0"/>
  <flow id="car_-55029244#0_193253427#0_00025f7e" type="car" begin="0" end="3600" vehsPerHour="22.56" departLane="best" departPos="random" departSpeed="0" from="-55029244#0" to="193253427#0"/>
  <flow id="car_-55029244#0_198876043#2_00025f7e" type="car" begin="0" end="3600" vehsPerHour="20.46" departLane="best" departPos="random" departSpeed="0" from="-55029244#0" to="198876043#2"/>
  <flow id="car_-55029244#0_28231434_00025f7e" type="car" begin="0" end="3600" vehsPerHour="17.16" departLane="best" departPos="random" departSpeed="0" from="-55029244#0" to="28231434"/>
  <flow id="car_-55029244#0_23241821#0_00025f7e" type="car" begin="0" end="3600" vehsPerHour="13.89" departLane="best" departPos="random" departSpeed="0" from="-55029244#0" to="23241821#0"/>
  <flow id="motorcycle_-55029244#0_198876042#0_00025f7e" type="motorcycle" begin="0" end="3600" vehsPerHour="78.22" departLane="best" departPos="random" departSpeed="0" from="-55029244#0" to="198876042#0"/>
  <flow id="motorcycle_-55029244#0_193253427#0_00025f7e" type="motorcycle" begin="0" end="3600" vehsPerHour="67.04" departLane="best" departPos="random" departSpeed="0" from="-55029244#0" to="193253427#0"/>
  <flow id="motorcycle_-55029244#0_198876043#2_00025f7e" type="motorcycle" begin="0" end="3600" vehsPerHour="60.28" departLane="best" departPos="random" departSpeed="0" from="-55029244#0" to="198876043#2"/>
  <flow id="motorcycle_-55029244#0_28231434_00025f7e" type="motorcycle" begin="0" end="3600" vehsPerHour="52.51" departLane="best" departPos="random" departSpeed="0" from="-55029244#0" to="28231434"/>
  <flow id="motorcycle_-55029244#0_23241821#0_00025f7e" type="motorcycle" begin="0" end="3600" vehsPerHour="48.60" departLane="best" departPos="random" departSpeed="0" from="-55029244#0" to="23241821#0"/>
  <flow id="car_34241530#0_198876042#0_00025f7e" type="car" begin="0" end="3600" vehsPerHour="25.90" departLane="best" departPos="random" departSpeed="0" from="34241530#0" to="198876042#0"/>
  <flow id="car_34241530#0_193253427#0_00025f7e" type="car" begin="0" end="3600" vehsPerHour="24.02" departLane="best" departPos="random" departSpeed="0" from="34241530#0" to="193253427#0"/>
  <flow id="car_34241530#0_198876043#2_00025f7e" type="car" begin="0" end="3600" vehsPerHour="20.17" departLane="best" departPos="random" departSpeed="0" from="34241530#0" to="198876043#2"/>
  <flow id="car_34241530#0_28231434_00025f7e" type="car" begin="0" end="3600" vehsPerHour="17.42" departLane="best" departPos="random" departSpeed="0" from="34241530#0" to="28231434"/>
  <flow id="car_34241530#0_23241821#0_00025f7e" type="car" begin="0" end="3600" vehsPerHour="13.28" departLane="best" departPos="random" departSpeed="0" from="34241530#0" to="23241821#0"/>
  <flow id="motorcycle_34241530#0_198876042#0_00025f7e" type="motorcycle" begin="0" end="3600" vehsPerHour="79.78" departLane="best" departPos="random" departSpeed="0" from="34241530#0" to="198876042#0"/>
  <flow id="motorcycle_34241530#0_193253427#0_00025f7e" type="motorcycle" begin="0" end="3600" vehsPerHour="67.70" departLane="best" departPos="random" departSpeed="0" from="34241530#0" to="193253427#0"/>
  <flow id="motorcycle_34241530#0_198876043#2_00025f7e" type="motorcycle" begin="0" end="3600" vehsPerHour="59.30" departLane="best" departPos="random" departSpeed="0" from="34241530#0" to="198876043#2"/>
  <flow id="motorcycle_34241530#0_28231434_00025f7e" type="motorcycle" begin="0" end="3600" vehsPerHour="53.49" departLane="best" departPos="random" departSpeed="0" from="34241530#0" to="28231434"/>
  <flow id="motorcycle_34241530#0_23241821#0_00025f7e" type="motorcycle" begin="0" end="3600" vehsPerHour="46.77" departLane="best" departPos="random" departSpeed="0" from="34241530#0" to="23241821#0"/>
  <flow id="truck_34241530#0_198876042#0_00025f7e" type="truck" begin="0" end="3600" vehsPerHour="11.83" departLane="best" departPos="random" departSpeed="0" from="34241530#0" to="198876042#0"/>
</routes>
