<routes>
<vType id="car" vClass="passenger" accel="2.6" decel="4.5" sigma="0.5" length="5.0" maxSpeed="13.9"/>
<vType id="motorcycle" vClass="motorcycle" accel="3.0" decel="5.0" sigma="0.5" length="2.0" maxSpeed="14.0"/>
<vType id="truck" vClass="truck" accel="1.2" decel="3.5" sigma="0.5" length="12.0" maxSpeed="10.0"/>

  <flow id="car_222682222#1_193253427#0_000465f9" type="car" begin="0" end="3600" vehsPerHour="62.68" departLane="best" departPos="random" departSpeed="0" from="222682222#1" to="193253427#0"/>
  <flow id="car_222682222#1_198876043#0_000465f9" type="car" begin="0" end="3600" vehsPerHour="48.52" departLane="best" departPos="random" departSpeed="0" from="222682222#1" to="198876043#0"/>
  <flow id="car_222682222#1_28231434_000465f9" type="car" begin="0" end="3600" vehsPerHour="52.23" departLane="best" departPos="random" departSpeed="0" from="222682222#1" to="28231434"/>
  <flow id="car_222682222#1_23241821#0_000465f9" type="car" begin="0" end="3600" vehsPerHour="40.71" departLane="best" departPos="random" departSpeed="0" from="222682222#1" to="23241821#0"/>
  <flow id="car_222682222#1_198876042#0_000465f9" type="car" begin="0" end="3600" vehsPerHour="34.52" departLane="best" departPos="random" departSpeed="0" from="222682222#1" to="198876042#0"/>
  <flow id="motorcycle_222682222#1_193253427#0_000465f9" type="motorcycle" begin="0" end="3600" vehsPerHour="182.69" departLane="best" departPos="random" departSpeed="0" from="222682222#1" to="193253427#0"/>
  <flow id="motorcycle_222682222#1_198876043#0_000465f9" type="motorcycle" begin="0" end="3600" vehsPerHour="147.93" departLane="best" departPos="random" departSpeed="0" from="222682222#1" to="198876043#0"/>
  <flow id="motorcycle_222682222#1_28231434_000465f9" type="motorcycle" begin="0" end="3600" vehsPerHour="141.49" departLane="best" departPos="random" departSpeed="0" from="222682222#1" to="28231434"/>
  <flow id="motorcycle_222682222#1_23241821#0_000465f9" type="motorcycle" begin="0" end="3600" vehsPerHour="114.81" departLane="best" departPos="random" departSpeed="0" from="222682222#1" to="23241821#0"/>
  <flow id="motorcycle_222682222#1_198876042#0_000465f9" type="motorcycle" begin="0" end="3600" vehsPerHour="97.00" departLane="best" departPos="random" departSpeed="0" from="222682222#1" to="198876042#0"/>
  <flow id="car_193253433#2_198876043#0_000465f9" type="car" begin="0" end="3600" vehsPerHour="40.95" departLane="best" departPos="random" departSpeed="0" from="193253433#2" to="198876043#0"/>
  <flow id="car_193253433#2_28231434_000465f9" type="car" begin="0" end="3600" vehsPerHour="35.24" departLane="best" departPos="random" departSpeed="0" from="193253433#2" to="28231434"/>
  <flow id="car_193253433#2_23241821#0_000465f9" type="car" begin="0" end="3600" vehsPerHour="34.84" departLane="best" departPos="random" departSpeed="0" from="193253433#2" to="23241821#0"/>
  <flow id="car_193253433#2_198876042#0_000465f9" type="car" begin="0" end="3600" vehsPerHour="28.05" departLane="best" departPos="random" departSpeed="0" from="193253433#2" to="198876042#0"/>
  <flow id="car_193253433#2_193253427#0_000465f9" type="car" begin="0" end="3600" vehsPerHour="23.17" departLane="best" departPos="random" departSpeed="0" from="193253433#2" to="193253427#0"/>
  <flow id="motorcycle_193253433#2_198876043#0_000465f9" type="motorcycle" begin="0" end="3600" vehsPerHour="117.93" departLane="best" departPos="random" departSpeed="0" from="193253433#2" to="198876043#0"/>
  <flow id="motorcycle_193253433#2_28231434_000465f9" type="motorcycle" begin="0" end="3600" vehsPerHour="105.38" departLane="best" departPos="random" departSpeed="0" from="193253433#2" to="28231434"/>
  <flow id="motorcycle_193253433#2_23241821#0_000465f9" type="motorcycle" begin="0" end="3600" vehsPerHour="90.05" departLane="best" departPos="random" departSpeed="0" from="193253433#2" to="23241821#0"/>
  <flow id="motorcycle_193253433#2_198876042#0_000465f9" type="motorcycle" begin="0" end="3600" vehsPerHour="81.26" departLane="best" departPos="random" departSpeed="0" from="193253433#2" to="198876042#0"/>
  <flow id="motorcycle_193253433#2_193253427#0_000465f9" type="motorcycle" begin="0" end="3600" vehsPerHour="64.75" departLane="best" departPos="random" departSpeed="0" from="193253433#2" to="193253427#0"/>
  <flow id="car_198876045#1_28231434_000465f9" type="car" begin="0" end="3600" vehsPerHour="35.04" departLane="best" departPos="random" departSpeed="0" from="198876045#1" to="28231434"/>
  <flow id="car_198876045#1_23241821#0_000465f9" type="car" begin="0" end="3600" vehsPerHour="30.24" departLane="best" departPos="random" departSpeed="0" from="198876045#1" to="23241821#0"/>
  <flow id="car_198876045#1_198876042#0_000465f9" type="car" begin="0" end="3600" vehsPerHour="26.23" departLane="best" departPos="random" departSpeed="0" from="198876045#1" to="198876042#0"/>
  <flow id="car_198876045#1_193253427#0_000465f9" type="car" begin="0" end="3600" vehsPerHour="24.73" departLane="best" departPos="random" departSpeed="0" from="198876045#1" to="193253427#0"/>
  <flow id="car_198876045#1_198876043#2_000465f9" type="car" begin="0" end="3600" vehsPerHour="20.87" departLane="best" departPos="random" departSpeed="0" from="198876045#1" to="198876043#2"/>
  <flow id="motorcycle_198876045#1_28231434_000465f9" type="motorcycle" begin="0" end="3600" vehsPerHour="99.22" departLane="best" departPos="random" departSpeed="0" from="198876045#1" to="28231434"/>
  <flow id="motorcycle_198876045#1_23241821#0_000465f9" type="motorcycle" begin="0" end="3600" vehsPerHour="90.08" departLane="best" departPos="random" departSpeed="0" from="198876045#1" to="23241821#0"/>
  <flow id="motorcycle_198876045#1_198876042#0_000465f9" type="motorcycle" begin="0" end="3600" vehsPerHour="83.31" departLane="best" departPos="random" departSpeed="0" from="198876045#1" to="198876042#0"/>
  <flow id="motorcycle_198876045#1_193253427#0_000465f9" type="motorcycle" begin="0" end="3600" vehsPerHour="70.76" departLane="best" departPos="random" departSpeed="0" from="198876045#1" to="193253427#0"/>
  <flow id="motorcycle_198876045#1_198876043#2_000465f9" type="motorcycle" begin="0" end="3600" vehsPerHour="67.83" departLane="best" departPos="random" departSpeed="0" from="198876045#1" to="198876043#2"/>
  <flow id="car_-28231434_23241821#0_000465f9" type="car" begin="0" end="3600" vehsPerHour="23.04" departLane="best" departPos="random" departSpeed="0" from="-28231434" to="23241821#0"/>
  <flow id="car_-28231434_198876042#0_000465f9" type="car" begin="0" end="3600" vehsPerHour="20.69" departLane="best" departPos="random" departSpeed="0" from="-28231434" to="198876042#0"/>
  <flow id="car_-28231434_193253427#0_000465f9" type="car" begin="0" end="3600" vehsPerHour="16.13" departLane="best" departPos="random" departSpeed="0" from="-28231434" to="193253427#0"/>
  <flow id="car_-28231434_198876043#2_000465f9" type="car" begin="0" end="3600" vehsPerHour="16.03" departLane="best" departPos="random" departSpeed="0" from="-28231434" to="198876043#2"/>
  <flow id="car_-28231434_28231434_000465f9" type="car" begin="0" end="3600" vehsPerHour="14.08" departLane="best" departPos="random" departSpeed="0" from="-28231434" to="28231434"/>
  <flow id="motorcycle_-28231434_23241821#0_000465f9" type="motorcycle" begin="0" end="3600" vehsPerHour="68.15" departLane="best" departPos="random" departSpeed="0" from="-28231434" to="23241821#0"/>
  <flow id="motorcycle_-28231434_198876042#0_000465f9" type="motorcycle" begin="0" end="3600" vehsPerHour="63.49" departLane="best" departPos="random" departSpeed="0" from="-28231434" to="198876042#0"/>
  <flow id="motorcycle_-28231434_193253427#0_000465f9" type="motorcycle" begin="0" end="3600" vehsPerHour="54.40" departLane="best" departPos="random" departSpeed="0" from="-28231434" to="193253427#0"/>
  <flow id="motorcycle_-28231434_198876043#2_000465f9" type="motorcycle" begin="0" end="3600" vehsPerHour="46.55" departLane="best" departPos="random" departSpeed="0" from="-28231434" to="198876043#2"/>
  <flow id="motorcycle_-28231434_28231434_000465f9" type="motorcycle" begin="0" end="3600" vehsPerHour="39.55" departLane="best" departPos="random" departSpeed="0" from="-28231434" to="28231434"/>
  <flow id="car_-55029244#0_198876042#0_000465f9" type="car" begin="0" end="3600" vehsPerHour="27.85" departLane="best" departPos="random" departSpeed="0" from="-55029244#0" to="198876042#0"/>
  <flow id="car_-55029244#0_193253427#0_000465f9" type="car" begin="0" end="3600" vehsPerHour="23.80" departLane="best" departPos="random" departSpeed="0" from="-55029244#0" to="193253427#0"/>
  <flow id="car_-55029244#0_198876043#2_000465f9" type="car" begin="0" end="3600" vehsPerHour="19.58" departLane="best" departPos="random" departSpeed="0" from="-55029244#0" to="198876043#2"/>
  <flow id="car_-55029244#0_28231434_000465f9" type="car" begin="0" end="3600" vehsPerHour="16.05" departLane="best" departPos="random" departSpeed="0" from="-55029244#0" to="28231434"/>
  <flow id="car_-55029244#0_23241821#0_000465f9" type="car" begin="0" end="3600" vehsPerHour="13.55" departLane="best" departPos="random" departSpeed="0" from="-55029244#0" to="23241821#0"/>
  <flow id="motorcycle_-55029244#0_198876042#0_000465f9" type="motorcycle" begin="0" end="3600" vehsPerHour="78.11" departLane="best" departPos="random" departSpeed="0" from="-55029244#0" to="198876042#0"/>
  <flow id="motorcycle_-55029244#0_193253427#0_000465f9" type="motorcycle" begin="0" end="3600" vehsPerHour="65.86" departLane="best" departPos="random" departSpeed="0" from="-55029244#0" to="193253427#0"/>
  <flow id="motorcycle_-55029244#0_198876043#2_000465f9" type="motorcycle" begin="0" end="3600" vehsPerHour="59.31" departLane="best" departPos="random" departSpeed="0" from="-55029244#0" to="198876043#2"/>
  <flow id="motorcycle_-55029244#0_28231434_000465f9" type="motorcycle" begin="0" end="3600" vehsPerHour="51.22" departLane="best" departPos="random" departSpeed="0" from="-55029244#0" to="28231434"/>
  <flow id="motorcycle_-55029244#0_23241821#0_000465f9" type="motorcycle" begin="0" end="3600" vehsPerHour="48.49" departLane="best" departPos="random" departSpeed="0" from="-55029244#0" to="23241821#0"/>
  <flow id="car_34241530#0_198876042#0_000465f9" type="car" begin="0" end="3600" vehsPerHour="27.18" departLane="best" departPos="random" departSpeed="0" from="34241530#0" to="198876042#0"/>
  <flow id="car_34241530#0_193253427#0_000465f9" type="car" begin="0" end="3600" vehsPerHour="22.78" departLane="best" departPos="random" departSpeed="0" from="34241530#0" to="193253427#0"/>
  <flow id="car_34241530#0_198876043#2_000465f9" type="car" begin="0" end="3600" vehsPerHour="19.23" departLane="best" departPos="random" departSpeed="0" from="34241530#0" to="198876043#2"/>
  <flow id="car_34241530#0_28231434_000465f9" type="car" begin="0" end="3600" vehsPerHour="17.56" departLane="best" departPos="random" departSpeed="0" from="34241530#0" to="28231434"/>
  <flow id="car_34241530#0_23241821#0_000465f9" type="car" begin="0" end="3600" vehsPerHour="14.07" departLane="best" departPos="random" departSpeed="0" from="34241530#0" to="23241821#0"/>
  <flow id="motorcycle_34241530#0_198876042#0_000465f9" type="motorcycle" begin="0" end="3600" vehsPerHour="78.91" departLane="best" departPos="random" departSpeed="0" from="34241530#0" to="198876042#0"/>
  <flow id="motorcycle_34241530#0_193253427#0_000465f9" type="motorcycle" begin="0" end="3600" vehsPerHour="65.89" departLane="best" departPos="random" departSpeed="0" from="34241530#0" to="193253427#0"/>
  <flow id="motorcycle_34241530#0_198876043#2_000465f9" type="motorcycle" begin="0" end="3600" vehsPerHour="59.21" departLane="best" departPos="random" departSpeed="0" from="34241530#0" to="198876043#2"/>
  <flow id="motorcycle_34241530#0_28231434_000465f9" type="motorcycle" begin="0" end="3600" vehsPerHour="53.09" departLane="best" departPos="random" departSpeed="0" from="34241530#0" to="28231434"/>
  <flow id="motorcycle_34241530#0_23241821#0_000465f9" type="motorcycle" begin="0" end="3600" vehsPerHour="48.80" departLane="best" departPos="random" departSpeed="0" from="34241530#0" to="23241821#0"/>
  <flow id="truck_34241530#0_198876042#0_000465f9" type="truck" begin="0" end="3600" vehsPerHour="11.24" departLane="best" departPos="random" departSpeed="0" from="34241530#0" to="198876042#0"/>
</routes>
