<routes>
<vType id="car" vClass="passenger" accel="2.6" decel="4.5" sigma="0.5" length="5.0" maxSpeed="13.9"/>
<vType id="motorcycle" vClass="motorcycle" accel="3.0" decel="5.0" sigma="0.5" length="2.0" maxSpeed="14.0"/>
<vType id="truck" vClass="truck" accel="1.2" decel="3.5" sigma="0.5" length="12.0" maxSpeed="10.0"/>

  <flow id="car_222682222#1_193253427#0_00086559" type="car" begin="0" end="3600" vehsPerHour="57.86" departLane="best" departPos="random" departSpeed="0" from="222682222#1" to="193253427#0"/>
  <flow id="car_222682222#1_198876043#0_00086559" type="car" begin="0" end="3600" vehsPerHour="51.65" departLane="best" departPos="random" departSpeed="0" from="222682222#1" to="198876043#0"/>
  <flow id="car_222682222#1_28231434_00086559" type="car" begin="0" end="3600" vehsPerHour="48.90" departLane="best" departPos="random" departSpeed="0" from="222682222#1" to="28231434"/>
  <flow id="car_222682222#1_23241821#0_00086559" type="car" begin="0" end="3600" vehsPerHour="38.43" departLane="best" departPos="random" departSpeed="0" from="222682222#1" to="23241821#0"/>
  <flow id="car_222682222#1_198876042#0_00086559" type="car" begin="0" end="3600" vehsPerHour="35.28" departLane="best" departPos="random" departSpeed="0" from="222682222#1" to="198876042#0"/>
  <flow id="motorcycle_222682222#1_193253427#0_00086559" type="motorcycle" begin="0" end="3600" vehsPerHour="175.29" departLane="best" departPos="random" departSpeed="0" from="222682222#1" to="193253427#0"/>
  <flow id="motorcycle_222682222#1_198876043#0_00086559" type="motorcycle" begin="0" end="3600" vehsPerHour="154.30" departLane="best" departPos="random" departSpeed="0" from="222682222#1" to="198876043#0"/>
  <flow id="motorcycle_222682222#1_28231434_00086559" type="motorcycle" begin="0" end="3600" vehsPerHour="145.62" departLane="best" departPos="random" departSpeed="0" from="222682222#1" to="28231434"/>
  <flow id="motorcycle_222682222#1_23241821#0_00086559" type="motorcycle" begin="0" end="3600" vehsPerHour="115.94" departLane="best" departPos="random" departSpeed="0" from="222682222#1" to="23241821#0"/>
  <flow id="motorcycle_222682222#1_198876042#0_00086559" type="motorcycle" begin="0" end="3600" vehsPerHour="99.22" departLane="best" departPos="random" departSpeed="0" from="222682222#1" to="198876042#0"/>
  <flow id="car_193253433#2_198876043#0_00086559" type="car" begin="0" end="3600" vehsPerHour="39.78" departLane="best" departPos="random" departSpeed="0" from="193253433#2" to="198876043#0"/>
  <flow id="car_193253433#2_28231434_00086559" type="car" begin="0" end="3600" vehsPerHour="32.68" departLane="best" departPos="random" departSpeed="0" from="193253433#2" to="28231434"/>
  <flow id="car_193253433#2_23241821#0_00086559" type="car" begin="0" end="3600" vehsPerHour="33.33" departLane="best" departPos="random" departSpeed="0" from="193253433#2" to="23241821#0"/>
  <flow id="car_193253433#2_198876042#0_00086559" type="car" begin="0" end="3600" vehsPerHour="26.95" departLane="best" departPos="random" departSpeed="0" from="193253433#2" to="198876042#0"/>
  <flow id="car_193253433#2_193253427#0_00086559" type="car" begin="0" end="3600" vehsPerHour="23.53" departLane="best" departPos="random" departSpeed="0" from="193253433#2" to="193253427#0"/>
  <flow id="motorcycle_193253433#2_198876043#0_00086559" type="motorcycle" begin="0" end="3600" vehsPerHour="110.14" departLane="best" departPos="random" departSpeed="0" from="193253433#2" to="198876043#0"/>
  <flow id="motorcycle_193253433#2_28231434_00086559" type="motorcycle" begin="0" end="3600" vehsPerHour="98.58" departLane="best" departPos="random" departSpeed="0" from="193253433#2" to="28231434"/>
  <flow id="motorcycle_193253433#2_23241821#0_00086559" type="motorcycle" begin="0" end="3600" vehsPerHour="94.14" departLane="best" departPos="random" departSpeed="0" from="193253433#2" to="23241821#0"/>
  <flow id="motorcycle_193253433#2_198876042#0_00086559" type="motorcycle" begin="0" end="3600" vehsPerHour="84.61" departLane="best" departPos="random" departSpeed="0" from="193253433#2" to="198876042#0"/>
  <flow id="motorcycle_193253433#2_193253427#0_00086559" type="motorcycle" begin="0" end="3600" vehsPerHour="67.84" departLane="best" departPos="random" departSpeed="0" from="193253433#2" to="193253427#0"/>
  <flow id="car_198876045#1_28231434_00086559" type="car" begin="0" end="3600" vehsPerHour="33.12" departLane="best" departPos="random" departSpeed="0" from="198876045#1" to="28231434"/>
  <flow id="car_198876045#1_23241821#0_00086559" type="car" begin="0" end="3600" vehsPerHour="29.92" departLane="best" departPos="random" departSpeed="0" from="198876045#1" to="23241821#0"/>
  <flow id="car_198876045#1_198876042#0_00086559" type="car" begin="0" end="3600" vehsPerHour="26.11" departLane="best" departPos="random" departSpeed="0" from="198876045#1" to="198876042#0"/>
  <flow id="car_198876045#1_193253427#0_00086559" type="car" begin="0" end="3600" vehsPerHour="24.08" departLane="best" departPos="random" departSpeed="0" from="198876045#1" to="193253427#0"/>
  <flow id="car_198876045#1_198876043#2_00086559" type="car" begin="0" end="3600" vehsPerHour="19.32" departLane="best" departPos="random" departSpeed="0" from="198876045#1" to="198876043#2"/>
  <flow id="motorcycle_198876045#1_28231434_00086559" type="motorcycle" begin="0" end="3600" vehsPerHour="102.16" departLane="best" departPos="random" departSpeed="0" from="198876045#1" to="28231434"/>
  <flow id="motorcycle_198876045#1_23241821#0_00086559" type="motorcycle" begin="0" end="3600" vehsPerHour="88.10" departLane="best" departPos="random" departSpeed="0" from="198876045#1" to="23241821#0"/>
  <flow id="motorcycle_198876045#1_198876042#0_00086559" type="motorcycle" begin="0" end="3600" vehsPerHour="84.11" departLane="best" departPos="random" departSpeed="0" from="198876045#1" to="198876042#0"/>
  <flow id="motorcycle_198876045#1_193253427#0_00086559" type="motorcycle" begin="0" end="3600" vehsPerHour="76.88" departLane="best" departPos="random" departSpeed="0" from="198876045#1" to="193253427#0"/>
  <flow id="motorcycle_198876045#1_198876043#2_00086559" type="motorcycle" begin="0" end="3600" vehsPerHour="69.76" departLane="best" departPos="random" departSpeed="0" from="198876045#1" to="198876043#2"/>
  <flow id="car_-28231434_23241821#0_00086559" type="car" begin="0" end="3600" vehsPerHour="23.26" departLane="best" departPos="random" departSpeed="0" from="-28231434" to="23241821#0"/>
  <flow id="car_-28231434_198876042#0_00086559" type="car" begin="0" end="3600" vehsPerHour="20.39" departLane="best" departPos="random" departSpeed="0" from="-28231434" to="198876042#0"/>
  <flow id="car_-28231434_193253427#0_00086559" type="car" begin="0" end="3600" vehsPerHour="16.60" departLane="best" departPos="random" departSpeed="0" from="-28231434" to="193253427#0"/>
  <flow id="car_-28231434_198876043#2_00086559" type="car" begin="0" end="3600" vehsPerHour="17.52" departLane="best" departPos="random" departSpeed="0" from="-28231434" to="198876043#2"/>
  <flow id="car_-28231434_28231434_00086559" type="car" begin="0" end="3600" vehsPerHour="14.08" departLane="best" departPos="random" departSpeed="0" from="-28231434" to="28231434"/>
  <flow id="motorcycle_-28231434_23241821#0_00086559" type="motorcycle" begin="0" end="3600" vehsPerHour="67.89" departLane="best" departPos="random" departSpeed="0" from="-28231434" to="23241821#0"/>
  <flow id="motorcycle_-28231434_198876042#0_00086559" type="motorcycle" begin="0" end="3600" vehsPerHour="62.29" departLane="best" departPos="random" departSpeed="0" from="-28231434" to="198876042#0"/>
  <flow id="motorcycle_-28231434_193253427#0_00086559" type="motorcycle" begin="0" end="3600" vehsPerHour="52.26" departLane="best" departPos="random" departSpeed="0" from="-28231434" to="193253427#0"/>
  <flow id="motorcycle_-28231434_198876043#2_00086559" type="motorcycle" begin="0" end="3600" vehsPerHour="46.53" departLane="best" departPos="random" departSpeed="0" from="-28231434" to="198876043#2"/>
  <flow id="motorcycle_-28231434_28231434_00086559" type="motorcycle" begin="0" end="3600" vehsPerHour="38.94" departLane="best" departPos="random" departSpeed="0" from="-28231434" to="28231434"/>
  <flow id="car_-55029244#0_198876042#0_00086559" type="car" begin="0" end="3600" vehsPerHour="27.82" departLane="best" departPos="random" departSpeed="0" from="-55029244#0" to="198876042#0"/>
  <flow id="car_-55029244#0_193253427#0_00086559" type="car" begin="0" end="3600" vehsPerHour="22.68" departLane="best" departPos="random" departSpeed="0" from="-55029244#0" to="193253427#0"/>
  <flow id="car_-55029244#0_198876043#2_00086559" type="car" begin="0" end="3600" vehsPerHour="19.63" departLane="best" departPos="random" departSpeed="0" from="-55029244#0" to="198876043#2"/>
  <flow id="car_-55029244#0_28231434_00086559" type="car" begin="0" end="3600" vehsPerHour="16.18" departLane="best" departPos="random" departSpeed="0" from="-55029244#0" to="28231434"/>
  <flow id="car_-55029244#0_23241821#0_00086559" type="car" begin="0" end="3600" vehsPerHour="13.08" departLane="best" departPos="random" departSpeed="0" from="-55029244#0" to="23241821#0"/>
  <flow id="motorcycle_-55029244#0_198876042#0_00086559" type="motorcycle" begin="0" end="3600" vehsPerHour="78.50" departLane="best" departPos="random" departSpeed="0" from="-55029244#0" to="198876042#0"/>
  <flow id="motorcycle_-55029244#0_193253427#0_00086559" type="motorcycle" begin="0" end="3600" vehsPerHour="64.91" departLane="best" departPos="random" departSpeed="0" from="-55029244#0" to="193253427#0"/>
  <flow id="motorcycle_-55029244#0_198876043#2_00086559" type="motorcycle" begin="0" end="3600" vehsPerHour="60.89" departLane="best" departPos="random" departSpeed="0" from="-55029244#0" to="198876043#2"/>
  <flow id="motorcycle_-55029244#0_28231434_00086559" type="motorcycle" begin="0" end="3600" vehsPerHour="52.27" departLane="best" departPos="random" departSpeed="0" from="-55029244#0" to="28231434"/>
  <flow id="motorcycle_-55029244#0_23241821#0_00086559" type="motorcycle" begin="0" end="3600" vehsPerHour="47.71" departLane="best" departPos="random" departSpeed="0" from="-55029244#0" to="23241821#0"/>
  <flow id="car_34241530#0_198876042#0_00086559" type="car" begin="0" end="3600" vehsPerHour="27.99" departLane="best" departPos="random" departSpeed="0" from="34241530#0" to="198876042#0"/>
  <flow id="car_34241530#0_193253427#0_00086559" type="car" begin="0" end="3600" vehsPerHour="24.38" departLane="best" departPos="random" departSpeed="0" from="34241530#0" to="193253427#0"/>
  <flow id="car_34241530#0_198876043#2_00086559" type="car" begin="0" end="3600" vehsPerHour="20.40" departLane="best" departPos="random" departSpeed="0" from="34241530#0" to="198876043#2"/>
  <flow id="car_34241530#0_28231434_00086559" type="car" begin="0" end="3600" vehsPerHour="16.41" departLane="best" departPos="random" departSpeed="0" from="34241530#0" to="28231434"/>
  <flow id="car_34241530#0_23241821#0_00086559" type="car" begin="0" end="3600" vehsPerHour="12.95" departLane="best" departPos="random" departSpeed="0" from="34241530#0" to="23241821#0"/>
  <flow id="motorcycle_34241530#0_198876042#0_00086559" type="motorcycle" begin="0" end="3600" vehsPerHour="84.58" departLane="best" departPos="random" departSpeed="0" from="34241530#0" to="198876042#0"/>
  <flow id="motorcycle_34241530#0_193253427#0_00086559" type="motorcycle" begin="0" end="3600" vehsPerHour="67.65" departLane="best" departPos="random" departSpeed="0" from="34241530#0" to="193253427#0"/>
  <flow id="motorcycle_34241530#0_198876043#2_00086559" type="motorcycle" begin="0" end="3600" vehsPerHour="60.82" departLane="best" departPos="random" departSpeed="0" from="34241530#0" to="198876043#2"/>
  <flow id="motorcycle_34241530#0_28231434_00086559" type="motorcycle" begin="0" end="3600" vehsPerHour="51.95" departLane="best" departPos="random" departSpeed="0" from="34241530#0" to="28231434"/>
  <flow id="motorcycle_34241530#0_23241821#0_00086559" type="motorcycle" begin="0" end="3600" vehsPerHour="49.42" departLane="best" departPos="random" departSpeed="0" from="34241530#0" to="23241821#0"/>
  <flow id="truck_34241530#0_198876042#0_00086559" type="truck" begin="0" end="3600" vehsPerHour="12.05" departLane="best" departPos="random" departSpeed="0" from="34241530#0" to="198876042#0"/>
</routes>
