<?xml version="1.0" encoding="UTF-8"?>

<!-- generated on 2025-05-07 15:47:59 by Eclipse SUMO netedit Version 1.22.0
<neteditConfiguration xmlns:xsi="http://www.w3.org/2001/XMLSchema-instance" xsi:noNamespaceSchemaLocation="http://sumo.dlr.de/xsd/neteditConfiguration.xsd">

    <input>
        <sumocfg-file value="C:\Users\gr0664rx\RLProjects\GongguanRoundabout\cfg\gongguan.sumocfg"/>
        <additional-files value=""/>
        <route-files value="C:\Users\gr0664rx\RLProjects\GongguanRoundabout\cfg\../cfg/random_flow.rou.xml"/>
        <sumo-net-file value="C:\Users\gr0664rx\RLProjects\GongguanRoundabout\cfg\../net/gongguan_fixed_signal_blocking_cleaned.net.xml"/>
    </input>

    <output>
        <output-file value="C:\Users\gr0664rx\RLProjects\GongguanRoundabout\cfg\../net/gongguan_fixed_signal_blocking_cleaned.net.xml"/>
        <output.street-names value="true"/>
    </output>

    <processing>
        <geometry.min-radius.fix.railways value="false"/>
        <geometry.max-grade.fix value="false"/>
        <offset.disable-normalization value="true"/>
        <lefthand value="0"/>
    </processing>

    <junctions>
        <no-turnarounds value="true"/>
        <junctions.corner-detail value="5"/>
        <junctions.limit-turn-speed value="5.50"/>
        <rectangular-lane-cut value="0"/>
    </junctions>

    <pedestrian>
        <walkingareas value="0"/>
    </pedestrian>

    <netedit>
        <ignore.routeelements value="false"/>
    </netedit>

</neteditConfiguration>
-->

<net version="1.20" junctionCornerDetail="5" limitTurnSpeed="5.50" xmlns:xsi="http://www.w3.org/2001/XMLSchema-instance" xsi:noNamespaceSchemaLocation="http://sumo.dlr.de/xsd/net_file.xsd">

    <location netOffset="-352136.63,-2766519.94" convBoundary="104.76,292.03,529.53,617.40" origBoundary="121.534679,25.007028,121.541489,25.015019" projParameter="+proj=utm +zone=51 +ellps=WGS84 +datum=WGS84 +units=m +no_defs"/>

    <type id="highway.primary" priority="12" numLanes="2" speed="27.78" disallow="tram rail_urban rail rail_electric rail_fast ship container cable_car subway aircraft wheelchair scooter drone" oneway="0"/>
    <type id="highway.residential" priority="3" numLanes="1" speed="13.89" disallow="tram rail_urban rail rail_electric rail_fast ship container cable_car subway aircraft wheelchair scooter drone" oneway="0"/>
    <type id="highway.secondary" priority="11" numLanes="1" speed="27.78" disallow="tram rail_urban rail rail_electric rail_fast ship container cable_car subway aircraft wheelchair scooter drone" oneway="0"/>
    <type id="highway.tertiary" priority="10" numLanes="1" speed="22.22" disallow="tram rail_urban rail rail_electric rail_fast ship container cable_car subway aircraft wheelchair scooter drone" oneway="0"/>

    <edge id=":1936977761_0" function="internal">
        <lane id=":1936977761_0_0" index="0" disallow="tram rail_urban rail rail_electric rail_fast ship container cable_car subway aircraft wheelchair scooter drone" speed="11.11" length="1.00" shape="269.44,438.96 269.89,439.18 270.18,439.35 270.46,439.54 270.85,439.84"/>
        <lane id=":1936977761_0_1" index="1" disallow="tram rail_urban rail rail_electric rail_fast ship container cable_car subway aircraft wheelchair scooter drone" speed="11.11" length="1.00" shape="268.04,441.84 268.31,441.97 268.48,442.07 268.65,442.19 268.89,442.37"/>
        <lane id=":1936977761_0_2" index="2" disallow="tram rail_urban rail rail_electric rail_fast ship container cable_car subway aircraft wheelchair scooter drone" speed="11.11" length="1.00" shape="266.64,444.72 266.72,444.76 266.78,444.79 266.84,444.83 266.92,444.89"/>
    </edge>
    <edge id=":1936977777_0" function="internal">
        <lane id=":1936977777_0_0" index="0" disallow="tram rail_urban rail rail_electric rail_fast ship container cable_car subway aircraft wheelchair scooter drone" speed="5.76" length="6.39" shape="283.42,476.08 283.35,477.19 283.98,478.29 285.29,479.41 287.30,480.52"/>
        <lane id=":1936977777_0_1" index="1" disallow="tram rail_urban rail rail_electric rail_fast ship container cable_car subway aircraft wheelchair scooter drone" speed="6.59" length="8.66" shape="283.42,476.08 282.85,478.49 283.07,480.52 284.10,482.16 285.92,483.41"/>
    </edge>
    <edge id=":1936977777_2" function="internal">
        <lane id=":1936977777_2_0" index="0" disallow="tram rail_urban rail rail_electric rail_fast ship container cable_car subway aircraft wheelchair scooter drone" speed="11.11" length="10.08" shape="283.42,476.08 282.37,479.11 281.61,481.19 280.56,483.11 278.63,485.62"/>
        <lane id=":1936977777_2_1" index="1" disallow="tram rail_urban rail rail_electric rail_fast ship container cable_car subway aircraft wheelchair scooter drone" speed="11.11" length="10.08" shape="280.35,475.15 279.35,477.97 278.62,479.91 277.61,481.69 275.79,484.04"/>
        <lane id=":1936977777_2_2" index="2" disallow="tram rail_urban rail rail_electric rail_fast ship container cable_car subway aircraft wheelchair scooter drone" speed="11.11" length="10.08" shape="277.29,474.22 276.34,476.84 275.62,478.63 274.65,480.27 272.94,482.45"/>
    </edge>
    <edge id=":2037722551_0" function="internal">
        <lane id=":2037722551_0_0" index="0" disallow="tram rail_urban rail rail_electric rail_fast ship container cable_car subway aircraft wheelchair scooter drone" speed="6.95" length="8.03" shape="217.49,451.01 219.79,451.35 221.74,451.08 223.35,450.22 224.60,448.77"/>
        <lane id=":2037722551_0_1" index="1" disallow="tram rail_urban rail rail_electric rail_fast ship container cable_car subway aircraft wheelchair scooter drone" speed="8.40" length="12.12" shape="216.70,454.12 220.08,454.58 222.97,454.12 225.39,452.74 227.32,450.45"/>
    </edge>
    <edge id=":2037722551_2" function="internal">
        <lane id=":2037722551_2_0" index="0" disallow="tram rail_urban rail rail_electric rail_fast ship container cable_car subway aircraft wheelchair scooter drone" speed="11.11" length="10.88" shape="219.77,459.68 220.86,456.30 221.70,454.00 222.78,451.82 224.60,448.77"/>
        <lane id=":2037722551_2_1" index="1" disallow="tram rail_urban rail rail_electric rail_fast ship container cable_car subway aircraft wheelchair scooter drone" speed="11.11" length="10.88" shape="222.92,460.35 223.91,457.27 224.69,455.19 225.67,453.21 227.32,450.45"/>
        <lane id=":2037722551_2_2" index="2" disallow="tram rail_urban rail rail_electric rail_fast ship container cable_car subway aircraft wheelchair scooter drone" speed="11.11" length="10.88" shape="226.07,461.00 226.97,458.25 227.67,456.38 228.56,454.61 230.05,452.12"/>
    </edge>
    <edge id=":2037722609_0" function="internal">
        <lane id=":2037722609_0_0" index="0" disallow="tram rail_urban rail rail_electric rail_fast ship container cable_car subway aircraft wheelchair scooter drone" speed="7.20" length="8.09" shape="219.52,471.55 219.01,469.80 217.92,468.36 216.23,467.22 213.96,466.39"/>
        <lane id=":2037722609_0_1" index="1" disallow="tram rail_urban rail rail_electric rail_fast ship container cable_car subway aircraft wheelchair scooter drone" speed="7.97" length="10.08" shape="219.52,471.55 218.92,468.33 217.93,465.88 216.55,464.20 214.78,463.30"/>
    </edge>
    <edge id=":2037722609_2" function="internal">
        <lane id=":2037722609_2_0" index="0" disallow="tram rail_urban rail rail_electric rail_fast ship container cable_car subway aircraft wheelchair scooter drone" speed="11.11" length="10.82" shape="219.52,471.55 219.02,468.07 218.69,465.63 218.82,463.24 219.70,459.89"/>
        <lane id=":2037722609_2_1" index="1" disallow="tram rail_urban rail rail_electric rail_fast ship container cable_car subway aircraft wheelchair scooter drone" speed="11.11" length="10.82" shape="222.70,471.19 222.24,468.01 221.94,465.78 222.05,463.59 222.86,460.54"/>
        <lane id=":2037722609_2_2" index="2" disallow="tram rail_urban rail rail_electric rail_fast ship container cable_car subway aircraft wheelchair scooter drone" speed="11.11" length="10.82" shape="225.88,470.84 225.46,467.95 225.18,465.94 225.28,463.96 226.01,461.19"/>
    </edge>
    <edge id=":2037722652_0" function="internal">
        <lane id=":2037722652_0_0" index="0" disallow="tram rail_urban rail rail_electric rail_fast ship container cable_car subway aircraft wheelchair scooter drone" speed="8.97" length="8.64" shape="270.59,499.88 268.13,498.46 265.97,497.58 264.11,497.24 262.54,497.43"/>
        <lane id=":2037722652_0_1" index="1" disallow="tram rail_urban rail rail_electric rail_fast ship container cable_car subway aircraft wheelchair scooter drone" speed="10.25" length="11.43" shape="272.30,497.17 269.20,495.43 266.38,494.39 263.83,494.04 261.55,494.39"/>
    </edge>
    <edge id=":2037722652_2" function="internal">
        <lane id=":2037722652_2_0" index="0" disallow="tram rail_urban rail rail_electric rail_fast ship container cable_car subway aircraft wheelchair scooter drone" speed="11.11" length="10.54" shape="272.23,492.19 269.66,494.25 267.76,495.49 265.67,496.39 262.54,497.43"/>
        <lane id=":2037722652_2_1" index="1" disallow="tram rail_urban rail rail_electric rail_fast ship container cable_car subway aircraft wheelchair scooter drone" speed="11.11" length="10.54" shape="270.67,489.33 268.24,491.29 266.46,492.50 264.50,493.38 261.55,494.39"/>
        <lane id=":2037722652_2_2" index="2" disallow="tram rail_urban rail rail_electric rail_fast ship container cable_car subway aircraft wheelchair scooter drone" speed="11.11" length="10.54" shape="269.10,486.47 266.82,488.34 265.16,489.51 263.34,490.38 260.56,491.34"/>
    </edge>
    <edge id=":2037722663_0" function="internal">
        <lane id=":2037722663_0_0" index="0" disallow="tram rail_urban rail rail_electric rail_fast ship container cable_car subway aircraft wheelchair scooter drone" speed="6.71" length="7.24" shape="289.93,473.58 287.46,473.67 285.56,474.09 284.24,474.83 283.49,475.90"/>
    </edge>
    <edge id=":2037722663_1" function="internal">
        <lane id=":2037722663_1_0" index="0" disallow="tram rail_urban rail rail_electric rail_fast ship container cable_car subway aircraft wheelchair scooter drone" speed="6.50" length="9.03" shape="284.59,464.63 284.86,467.09 285.86,468.87 287.58,469.97 290.02,470.39"/>
    </edge>
    <edge id=":2037722663_2" function="internal">
        <lane id=":2037722663_2_0" index="0" disallow="tram rail_urban rail rail_electric rail_fast ship container cable_car subway aircraft wheelchair scooter drone" speed="11.11" length="10.58" shape="284.59,464.63 284.62,468.03 284.72,470.40 284.47,472.69 283.49,475.90"/>
        <lane id=":2037722663_2_1" index="1" disallow="tram rail_urban rail rail_electric rail_fast ship container cable_car subway aircraft wheelchair scooter drone" speed="11.11" length="10.58" shape="281.39,464.53 281.43,467.68 281.53,469.87 281.32,472.00 280.42,474.96"/>
        <lane id=":2037722663_2_2" index="2" disallow="tram rail_urban rail rail_electric rail_fast ship container cable_car subway aircraft wheelchair scooter drone" speed="11.11" length="10.58" shape="278.19,464.43 278.24,467.33 278.35,469.34 278.18,471.30 277.36,474.03"/>
    </edge>
    <edge id=":2047590029_0" function="internal">
        <lane id=":2047590029_0_0" index="0" disallow="tram rail_urban rail rail_electric rail_fast ship container cable_car subway aircraft wheelchair scooter drone" speed="11.11" length="13.80" shape="231.93,492.46 228.42,490.03 226.39,487.89 224.83,485.29 222.75,481.48"/>
        <lane id=":2047590029_0_1" index="1" disallow="tram rail_urban rail rail_electric rail_fast ship container cable_car subway aircraft wheelchair scooter drone" speed="11.11" length="13.80" shape="234.33,490.18 230.99,487.90 229.03,485.91 227.51,483.48 225.53,479.89"/>
        <lane id=":2047590029_0_2" index="2" disallow="tram rail_urban rail rail_electric rail_fast ship container cable_car subway aircraft wheelchair scooter drone" speed="11.11" length="13.80" shape="236.73,487.90 233.57,485.77 231.67,483.93 230.20,481.67 228.31,478.31"/>
    </edge>
    <edge id=":2047590029_3" function="internal">
        <lane id=":2047590029_3_0" index="0" disallow="tram rail_urban rail rail_electric rail_fast ship container cable_car subway aircraft wheelchair scooter drone" speed="8.79" length="9.94" shape="220.94,490.90 222.36,487.88 223.14,485.31 223.27,483.17 222.75,481.48"/>
        <lane id=":2047590029_3_1" index="1" disallow="tram rail_urban rail rail_electric rail_fast ship container cable_car subway aircraft wheelchair scooter drone" speed="9.94" length="12.90" shape="223.89,492.18 225.57,488.48 226.40,485.21 226.39,482.34 225.53,479.89"/>
        <lane id=":2047590029_3_2" index="2" disallow="tram rail_urban rail rail_electric rail_fast ship container cable_car subway aircraft wheelchair scooter drone" speed="10.99" length="15.87" shape="226.83,493.45 228.77,489.09 229.66,485.11 229.51,481.51 228.31,478.31"/>
    </edge>
    <edge id=":2047590030_0" function="internal">
        <lane id=":2047590030_0_0" index="0" disallow="tram rail_urban rail rail_electric rail_fast ship container cable_car subway aircraft wheelchair scooter drone" speed="6.81" length="7.86" shape="264.27,431.24 264.13,433.45 264.58,435.29 265.61,436.77 267.21,437.88"/>
        <lane id=":2047590030_0_1" index="1" disallow="tram rail_urban rail rail_electric rail_fast ship container cable_car subway aircraft wheelchair scooter drone" speed="8.28" length="12.03" shape="261.12,430.68 260.93,433.99 261.65,436.78 263.28,439.03 265.81,440.75"/>
    </edge>
    <edge id=":2047590030_2" function="internal">
        <lane id=":2047590030_2_0" index="0" disallow="tram rail_urban rail rail_electric rail_fast ship container cable_car subway aircraft wheelchair scooter drone" speed="11.11" length="11.01" shape="255.79,434.51 259.31,435.04 261.70,435.54 264.00,436.37 267.21,437.88"/>
        <lane id=":2047590030_2_1" index="1" disallow="tram rail_urban rail rail_electric rail_fast ship container cable_car subway aircraft wheelchair scooter drone" speed="11.11" length="11.01" shape="255.32,437.68 258.55,438.16 260.75,438.62 262.86,439.37 265.81,440.75"/>
        <lane id=":2047590030_2_2" index="2" disallow="tram rail_urban rail rail_electric rail_fast ship container cable_car subway aircraft wheelchair scooter drone" speed="11.11" length="11.01" shape="254.85,440.84 257.79,441.28 259.80,441.69 261.72,442.37 264.41,443.63"/>
    </edge>
    <edge id=":2089570215_0" function="internal">
        <lane id=":2089570215_0_0" index="0" disallow="tram rail_urban rail rail_electric rail_fast ship container cable_car subway aircraft wheelchair scooter drone" speed="9.54" length="9.65" shape="235.85,438.30 236.94,437.28 237.93,435.50 238.81,432.94 239.58,429.62"/>
        <lane id=":2089570215_0_1" index="1" disallow="tram rail_urban rail rail_electric rail_fast ship container cable_car subway aircraft wheelchair scooter drone" speed="10.13" length="10.94" shape="235.85,438.30 238.51,436.56 240.54,434.64 241.94,432.53 242.72,430.23"/>
        <lane id=":2089570215_0_2" index="2" disallow="tram rail_urban rail rail_electric rail_fast ship container cable_car subway aircraft wheelchair scooter drone" speed="10.85" length="12.64" shape="235.85,438.30 240.07,435.85 243.15,433.78 245.08,432.11 245.86,430.83"/>
    </edge>
    <edge id=":2089570215_3" function="internal">
        <lane id=":2089570215_3_0" index="0" disallow="tram rail_urban rail rail_electric rail_fast ship container cable_car subway aircraft wheelchair scooter drone" speed="11.11" length="13.13" shape="235.85,438.30 239.56,436.42 242.27,435.49 245.11,434.93 249.23,434.17"/>
        <lane id=":2089570215_3_1" index="1" disallow="tram rail_urban rail rail_electric rail_fast ship container cable_car subway aircraft wheelchair scooter drone" speed="11.11" length="13.13" shape="237.40,441.10 240.86,439.36 243.38,438.51 246.03,438.00 249.87,437.30"/>
        <lane id=":2089570215_3_2" index="2" disallow="tram rail_urban rail rail_electric rail_fast ship container cable_car subway aircraft wheelchair scooter drone" speed="11.11" length="13.13" shape="238.95,443.90 242.15,442.30 244.49,441.53 246.95,441.08 250.51,440.44"/>
    </edge>
    <edge id=":2089570225_0" function="internal">
        <lane id=":2089570225_0_0" index="0" disallow="tram rail_urban rail rail_electric rail_fast ship container cable_car subway aircraft wheelchair scooter drone" speed="7.56" length="8.94" shape="252.80,499.31 250.99,499.56 249.31,500.55 247.77,502.28 246.36,504.75"/>
        <lane id=":2089570225_0_1" index="1" disallow="tram rail_urban rail rail_electric rail_fast ship container cable_car subway aircraft wheelchair scooter drone" speed="8.23" length="10.74" shape="252.80,499.31 249.52,499.39 246.88,500.08 244.88,501.37 243.52,503.28"/>
        <lane id=":2089570225_0_2" index="2" disallow="tram rail_urban rail rail_electric rail_fast ship container cable_car subway aircraft wheelchair scooter drone" speed="8.96" length="12.86" shape="252.80,499.31 248.05,499.22 244.45,499.60 241.99,500.47 240.68,501.81"/>
    </edge>
    <edge id=":2089570225_3" function="internal">
        <lane id=":2089570225_3_0" index="0" disallow="tram rail_urban rail rail_electric rail_fast ship container cable_car subway aircraft wheelchair scooter drone" speed="11.11" length="14.41" shape="252.80,499.31 248.32,499.21 245.16,499.14 242.21,498.43 238.33,496.41"/>
        <lane id=":2089570225_3_1" index="1" disallow="tram rail_urban rail rail_electric rail_fast ship container cable_car subway aircraft wheelchair scooter drone" speed="11.11" length="14.41" shape="253.00,496.09 248.77,496.54 245.78,496.38 242.97,495.36 239.29,493.24"/>
        <lane id=":2089570225_3_2" index="2" disallow="tram rail_urban rail rail_electric rail_fast ship container cable_car subway aircraft wheelchair scooter drone" speed="11.11" length="14.41" shape="253.20,492.84 249.20,493.25 246.38,493.07 243.73,492.09 240.25,490.07"/>
    </edge>
    <edge id=":2402967375_0" function="internal">
        <lane id=":2402967375_0_0" index="0" disallow="tram rail_urban rail rail_electric rail_fast ship container cable_car subway aircraft wheelchair scooter drone" speed="27.78" length="0.30" shape="263.66,308.74 263.72,308.45"/>
        <lane id=":2402967375_0_1" index="1" disallow="tram rail_urban rail rail_electric rail_fast ship container cable_car subway aircraft wheelchair scooter drone" speed="27.78" length="0.30" shape="266.76,309.50 266.84,309.20"/>
        <lane id=":2402967375_0_2" index="2" disallow="tram rail_urban rail rail_electric rail_fast ship container cable_car subway aircraft wheelchair scooter drone" speed="27.78" length="0.30" shape="269.87,310.25 269.95,309.96"/>
    </edge>
    <edge id=":3146538284_0" function="internal">
        <lane id=":3146538284_0_0" index="0" disallow="tram rail_urban rail rail_electric rail_fast ship container cable_car subway aircraft wheelchair scooter drone" speed="27.78" length="0.30" shape="245.63,396.48 245.68,396.20"/>
        <lane id=":3146538284_0_1" index="1" disallow="tram rail_urban rail rail_electric rail_fast ship container cable_car subway aircraft wheelchair scooter drone" speed="27.78" length="0.30" shape="248.78,397.04 248.84,396.74"/>
        <lane id=":3146538284_0_2" index="2" disallow="tram rail_urban rail rail_electric rail_fast ship container cable_car subway aircraft wheelchair scooter drone" speed="27.78" length="0.30" shape="251.93,397.60 251.99,397.29"/>
    </edge>
    <edge id=":692163505_0" function="internal">
        <lane id=":692163505_0_0" index="0" disallow="tram rail_urban rail rail_electric rail_fast ship container cable_car subway aircraft wheelchair scooter drone" speed="7.02" length="9.15" shape="282.14,443.06 280.50,444.99 279.71,447.00 279.78,449.10 280.72,451.27"/>
    </edge>
    <edge id=":692163505_1" function="internal">
        <lane id=":692163505_1_0" index="0" disallow="tram rail_urban rail rail_electric rail_fast ship container cable_car subway aircraft wheelchair scooter drone" speed="6.86" length="8.83" shape="271.97,440.72 274.09,441.98 276.13,442.39 278.09,441.96 279.99,440.70"/>
    </edge>
    <edge id=":692163505_2" function="internal">
        <lane id=":692163505_2_0" index="0" disallow="tram rail_urban rail rail_electric rail_fast ship container cable_car subway aircraft wheelchair scooter drone" speed="11.11" length="13.12" shape="271.97,440.72 275.11,443.32 277.02,445.38 278.59,447.75 280.72,451.27"/>
        <lane id=":692163505_2_1" index="1" disallow="tram rail_urban rail rail_electric rail_fast ship container cable_car subway aircraft wheelchair scooter drone" speed="11.11" length="13.12" shape="269.66,442.97 272.64,445.44 274.47,447.38 275.97,449.61 277.99,452.95"/>
        <lane id=":692163505_2_2" index="2" disallow="tram rail_urban rail rail_electric rail_fast ship container cable_car subway aircraft wheelchair scooter drone" speed="11.11" length="13.12" shape="267.35,445.23 270.18,447.55 271.92,449.38 273.35,451.48 275.27,454.62"/>
    </edge>
    <edge id=":692163621_0" function="internal">
        <lane id=":692163621_0_0" index="0" disallow="tram rail_urban rail rail_electric rail_fast ship container cable_car subway aircraft wheelchair scooter drone" speed="3.65" length="4.67" shape="495.47,474.99 496.65,475.82 497.03,476.63 496.61,477.42 495.39,478.19"/>
    </edge>

    <edge id="-193253435" from="2037722663" to="692163621" name="羅斯福路四段113巷" priority="10" type="highway.tertiary" shape="281.17,471.74 298.77,472.23 424.76,474.92 468.21,475.95 495.43,476.59">
        <lane id="-193253435_0" index="0" disallow="tram rail_urban rail rail_electric rail_fast ship container cable_car subway aircraft wheelchair scooter drone" speed="22.22" length="205.50" shape="290.02,470.39 298.81,470.63 424.80,473.32 468.25,474.35 495.47,474.99">
            <param key="origId" value="193253435 55029244"/>
        </lane>
    </edge>
    <edge id="-28231434" from="692163534" to="692163505" name="羅斯福路四段119巷" priority="3" type="highway.residential" shape="528.68,355.57 525.65,353.23 508.81,340.67 470.70,312.22 449.25,296.21 443.77,293.43 438.86,292.03 433.07,292.03 428.62,293.27 423.62,295.86 417.35,303.07 403.13,320.46 383.72,344.21 349.76,385.62 344.12,390.66 298.77,426.79 287.67,435.86 274.73,447.65">
        <lane id="-28231434_0" index="0" disallow="tram rail_urban rail rail_electric rail_fast ship container cable_car subway aircraft wheelchair scooter drone" speed="8.33" length="330.29" shape="528.51,357.46 524.68,354.50 507.85,341.95 469.74,313.50 448.40,297.57 443.18,294.93 438.64,293.63 433.29,293.63 429.21,294.77 424.63,297.14 418.57,304.10 404.37,321.47 384.96,345.22 350.92,386.73 345.15,391.88 299.77,428.04 288.72,437.07 282.14,443.06">
            <param key="origId" value="28231434"/>
        </lane>
    </edge>
    <edge id="-55029244#0" from="692163621" to="2037722663" name="羅斯福路四段113巷" priority="10" type="highway.tertiary" shape="495.43,476.59 468.21,475.95 424.76,474.92 298.77,472.23 281.17,471.74">
        <lane id="-55029244#0_0" index="0" disallow="tram rail_urban rail rail_electric rail_fast ship container cable_car subway aircraft wheelchair scooter drone" speed="22.22" length="205.51" shape="495.39,478.19 468.17,477.55 424.72,476.52 298.73,473.83 289.93,473.58">
            <param key="origId" value="55029244 193253435"/>
        </lane>
    </edge>
    <edge id="1276692360" from="2047590030" to="1936977761" name="公館圓環" priority="12" type="highway.primary" spreadType="center">
        <lane id="1276692360_0" index="0" disallow="tram rail_urban rail rail_electric rail_fast ship container cable_car subway aircraft wheelchair scooter drone" speed="11.11" length="2.48" shape="267.21,437.88 269.44,438.96">
            <param key="origId" value="1276692360"/>
        </lane>
        <lane id="1276692360_1" index="1" disallow="tram rail_urban rail rail_electric rail_fast ship container cable_car subway aircraft wheelchair scooter drone" speed="11.11" length="2.48" shape="265.81,440.75 268.04,441.84">
            <param key="origId" value="1276692360"/>
        </lane>
        <lane id="1276692360_2" index="2" disallow="tram rail_urban rail rail_electric rail_fast ship container cable_car subway aircraft wheelchair scooter drone" speed="11.11" length="2.48" shape="264.41,443.63 266.64,444.72">
            <param key="origId" value="1276692360"/>
        </lane>
    </edge>
    <edge id="1276692361" from="1936977761" to="692163505" name="公館圓環" priority="12" type="highway.primary" spreadType="center" shape="268.49,442.06 271.80,444.64 274.73,447.65">
        <lane id="1276692361_0" index="0" disallow="tram rail_urban rail rail_electric rail_fast ship container cable_car subway aircraft wheelchair scooter drone" speed="11.11" length="0.98" shape="270.85,439.84 271.97,440.72">
            <param key="origId" value="1276692361"/>
        </lane>
        <lane id="1276692361_1" index="1" disallow="tram rail_urban rail rail_electric rail_fast ship container cable_car subway aircraft wheelchair scooter drone" speed="11.11" length="0.98" shape="268.89,442.37 269.66,442.97">
            <param key="origId" value="1276692361"/>
        </lane>
        <lane id="1276692361_2" index="2" disallow="tram rail_urban rail rail_electric rail_fast ship container cable_car subway aircraft wheelchair scooter drone" speed="11.11" length="0.98" shape="266.92,444.89 267.35,445.23">
            <param key="origId" value="1276692361"/>
        </lane>
    </edge>
    <edge id="1276692362" from="692163505" to="2037722663" name="公館圓環" priority="12" type="highway.primary" spreadType="center" shape="274.73,447.65 279.22,454.94 281.43,463.20 281.17,471.74">
        <lane id="1276692362_0" index="0" disallow="tram rail_urban rail rail_electric rail_fast ship container cable_car subway aircraft wheelchair scooter drone" speed="11.11" length="12.22" shape="280.72,451.27 282.19,453.66 284.64,462.83 284.59,464.63">
            <param key="origId" value="1276692362"/>
        </lane>
        <lane id="1276692362_1" index="1" disallow="tram rail_urban rail rail_electric rail_fast ship container cable_car subway aircraft wheelchair scooter drone" speed="11.11" length="12.22" shape="277.99,452.95 279.22,454.94 281.43,463.20 281.39,464.53">
            <param key="origId" value="1276692362"/>
        </lane>
        <lane id="1276692362_2" index="2" disallow="tram rail_urban rail rail_electric rail_fast ship container cable_car subway aircraft wheelchair scooter drone" speed="11.11" length="12.22" shape="275.27,454.62 276.25,456.22 278.22,463.57 278.19,464.43">
            <param key="origId" value="1276692362"/>
        </lane>
    </edge>
    <edge id="1276692363" from="2037722663" to="1936977777" name="公館圓環" priority="12" type="highway.primary" spreadType="center" shape="281.17,471.74 280.36,475.13 279.14,478.40">
        <lane id="1276692363_0" index="0" disallow="tram rail_urban rail rail_electric rail_fast ship container cable_car subway aircraft wheelchair scooter drone" speed="11.11" length="0.20" shape="283.49,475.90 283.42,476.08">
            <param key="origId" value="1276692363"/>
        </lane>
        <lane id="1276692363_1" index="1" disallow="tram rail_urban rail rail_electric rail_fast ship container cable_car subway aircraft wheelchair scooter drone" speed="11.11" length="0.20" shape="280.42,474.96 280.35,475.15">
            <param key="origId" value="1276692363"/>
        </lane>
        <lane id="1276692363_2" index="2" disallow="tram rail_urban rail rail_electric rail_fast ship container cable_car subway aircraft wheelchair scooter drone" speed="11.11" length="0.20" shape="277.36,474.03 277.29,474.22">
            <param key="origId" value="1276692363"/>
        </lane>
    </edge>
    <edge id="1276692364" from="2037722551" to="2089570215" name="公館圓環" priority="12" type="highway.primary" spreadType="center" shape="224.81,454.53 228.80,448.05 234.32,442.80 241.00,439.11">
        <lane id="1276692364_0" index="0" disallow="tram rail_urban rail rail_electric rail_fast ship container cable_car subway aircraft wheelchair scooter drone" speed="11.11" length="13.95" shape="224.60,448.77 226.29,446.02 232.41,440.20 235.85,438.30">
            <param key="origId" value="1276692364"/>
        </lane>
        <lane id="1276692364_1" index="1" disallow="tram rail_urban rail rail_electric rail_fast ship container cable_car subway aircraft wheelchair scooter drone" speed="11.11" length="13.95" shape="227.32,450.45 228.80,448.05 234.32,442.80 237.40,441.10">
            <param key="origId" value="1276692364"/>
        </lane>
        <lane id="1276692364_2" index="2" disallow="tram rail_urban rail rail_electric rail_fast ship container cable_car subway aircraft wheelchair scooter drone" speed="11.11" length="13.95" shape="230.05,452.12 231.31,450.08 236.23,445.40 238.95,443.90">
            <param key="origId" value="1276692364"/>
        </lane>
    </edge>
    <edge id="1276692365" from="2089570215" to="2047590030" name="公館圓環" priority="12" type="highway.primary" spreadType="center" shape="241.00,439.11 251.12,437.05 261.34,438.57">
        <lane id="1276692365_0" index="0" disallow="tram rail_urban rail rail_electric rail_fast ship container cable_car subway aircraft wheelchair scooter drone" speed="11.11" length="5.53" shape="249.23,434.17 251.03,433.80 255.79,434.51">
            <param key="origId" value="1276692365"/>
        </lane>
        <lane id="1276692365_1" index="1" disallow="tram rail_urban rail rail_electric rail_fast ship container cable_car subway aircraft wheelchair scooter drone" speed="11.11" length="5.53" shape="249.87,437.30 251.12,437.05 255.32,437.68">
            <param key="origId" value="1276692365"/>
        </lane>